<?xml version="1.0" encoding="UTF-8"?>

<!-- generated on Mon Feb 10 19:46:07 2020 by Eclipse SUMO netconvert Version v1_2_0+1287-e3a0083b72
<configuration xmlns:xsi="http://www.w3.org/2001/XMLSchema-instance" xsi:noNamespaceSchemaLocation="http://sumo.dlr.de/xsd/netconvertConfiguration.xsd">

    <input>
        <osm-files value="beijing.osm"/>
    </input>

    <output>
        <output-file value="beijing.net.xml"/>
    </output>

    <projection>
        <proj value="+proj=merc +a=6378137 +b=6378137 +lat_ts=0.0 +lon_0=0.0 +x_0=0.0 +y_0=0 +k=1.0 +units=m +nadgrids=@null +wktext +no_defs"/>
    </projection>

    <processing>
        <geometry.remove value="true"/>
        <edges.join value="true"/>
    </processing>

    <building_defaults>
        <default.lanewidth value="4"/>
    </building_defaults>

    <tls_building>
        <tls.discard-loaded value="true"/>
        <tls.discard-simple value="true"/>
    </tls_building>

    <ramp_guessing>
        <ramps.guess value="true"/>
    </ramp_guessing>

    <edge_removal>
        <keep-edges.by-type value="highway.motorway,highway.motorway_link,highway.trunk,highway.trunk_link,highway.primary,highway.primary_link,highway.secondary,highway.secondary_link,highway.tertiary,highway.tertiary_link,highway.unclassified,highway.residential"/>
    </edge_removal>

    <junctions>
        <no-turnarounds.except-deadend value="true"/>
        <junctions.join value="true"/>
    </junctions>

</configuration>
-->

<net version="1.3" junctionCornerDetail="5" limitTurnSpeed="5.50" xmlns:xsi="http://www.w3.org/2001/XMLSchema-instance" xsi:noNamespaceSchemaLocation="http://sumo.dlr.de/xsd/net_file.xsd">

    <location netOffset="-12960610.05,-4853486.22" convBoundary="0.00,0.00,206.87,3695.28" origBoundary="116.425886,39.914230,116.428999,39.939686" projParameter="+proj=merc +a=6378137 +b=6378137 +lat_ts=0.0 +lon_0=0.0 +x_0=0.0 +y_0=0 +k=1.0 +units=m +nadgrids=@null +wktext +no_defs"/>

    <type id="highway.bridleway" priority="1" numLanes="1" speed="2.78" allow="pedestrian" oneway="1" width="2.00"/>
    <type id="highway.bus_guideway" priority="1" numLanes="1" speed="27.78" allow="bus" oneway="1"/>
    <type id="highway.cycleway" priority="1" numLanes="1" speed="8.33" allow="bicycle" oneway="0" width="1.00"/>
    <type id="highway.footway" priority="1" numLanes="1" speed="2.78" allow="pedestrian" oneway="1" width="2.00"/>
    <type id="highway.ford" priority="1" numLanes="1" speed="2.78" allow="army" oneway="0"/>
    <type id="highway.living_street" priority="2" numLanes="1" speed="2.78" disallow="tram rail_urban rail rail_electric rail_fast ship" oneway="0"/>
    <type id="highway.motorway" priority="14" numLanes="2" speed="39.44" allow="private emergency authority army vip passenger hov taxi bus coach delivery truck trailer motorcycle evehicle custom1 custom2" oneway="1"/>
    <type id="highway.motorway_link" priority="9" numLanes="1" speed="22.22" allow="private emergency authority army vip passenger hov taxi bus coach delivery truck trailer motorcycle evehicle custom1 custom2" oneway="1"/>
    <type id="highway.path" priority="1" numLanes="1" speed="2.78" allow="pedestrian bicycle" oneway="1" width="2.00"/>
    <type id="highway.pedestrian" priority="1" numLanes="1" speed="2.78" allow="pedestrian" oneway="1" width="2.00"/>
    <type id="highway.primary" priority="12" numLanes="2" speed="27.78" disallow="tram rail_urban rail rail_electric rail_fast ship" oneway="0"/>
    <type id="highway.primary_link" priority="7" numLanes="1" speed="22.22" disallow="tram rail_urban rail rail_electric rail_fast ship" oneway="0"/>
    <type id="highway.raceway" priority="15" numLanes="2" speed="83.33" allow="vip" oneway="0"/>
    <type id="highway.residential" priority="3" numLanes="1" speed="13.89" disallow="tram rail_urban rail rail_electric rail_fast ship" oneway="0"/>
    <type id="highway.secondary" priority="11" numLanes="2" speed="27.78" disallow="tram rail_urban rail rail_electric rail_fast ship" oneway="0"/>
    <type id="highway.secondary_link" priority="6" numLanes="1" speed="22.22" disallow="tram rail_urban rail rail_electric rail_fast ship" oneway="0"/>
    <type id="highway.service" priority="1" numLanes="1" speed="5.56" allow="pedestrian delivery bicycle" oneway="0"/>
    <type id="highway.stairs" priority="1" numLanes="1" speed="1.39" allow="pedestrian" oneway="1" width="2.00"/>
    <type id="highway.step" priority="1" numLanes="1" speed="1.39" allow="pedestrian" oneway="1" width="2.00"/>
    <type id="highway.steps" priority="1" numLanes="1" speed="1.39" allow="pedestrian" oneway="1" width="2.00"/>
    <type id="highway.tertiary" priority="10" numLanes="1" speed="22.22" disallow="tram rail_urban rail rail_electric rail_fast ship" oneway="0"/>
    <type id="highway.tertiary_link" priority="5" numLanes="1" speed="22.22" disallow="tram rail_urban rail rail_electric rail_fast ship" oneway="0"/>
    <type id="highway.track" priority="1" numLanes="1" speed="5.56" disallow="tram rail_urban rail rail_electric rail_fast ship" oneway="0"/>
    <type id="highway.trunk" priority="13" numLanes="2" speed="27.78" disallow="pedestrian bicycle tram rail_urban rail rail_electric rail_fast ship" oneway="0"/>
    <type id="highway.trunk_link" priority="8" numLanes="1" speed="22.22" disallow="pedestrian bicycle tram rail_urban rail rail_electric rail_fast ship" oneway="0"/>
    <type id="highway.unclassified" priority="4" numLanes="1" speed="13.89" disallow="tram rail_urban rail rail_electric rail_fast ship" oneway="0"/>
    <type id="highway.unsurfaced" priority="1" numLanes="1" speed="8.33" disallow="tram rail_urban rail rail_electric rail_fast ship" oneway="0"/>
    <type id="railway.highspeed" priority="21" numLanes="1" speed="69.44" allow="rail_fast" oneway="1"/>
    <type id="railway.light_rail" priority="19" numLanes="1" speed="27.78" allow="rail_urban" oneway="1"/>
    <type id="railway.preserved" priority="16" numLanes="1" speed="27.78" allow="rail" oneway="1"/>
    <type id="railway.rail" priority="20" numLanes="1" speed="44.44" allow="rail" oneway="1"/>
    <type id="railway.subway" priority="18" numLanes="1" speed="27.78" allow="rail_urban" oneway="1"/>
    <type id="railway.tram" priority="17" numLanes="1" speed="13.89" allow="tram" oneway="1"/>

    <edge id=":103255993#0-AddedOnRampNode_0" function="internal">
        <lane id=":103255993#0-AddedOnRampNode_0_0" index="0" disallow="tram rail_urban rail rail_electric rail_fast ship" speed="22.22" length="8.00" width="4.00" shape="118.01,860.81 118.25,852.81"/>
    </edge>
    <edge id=":1114046802_0" function="internal">
        <lane id=":1114046802_0_0" index="0" disallow="tram rail_urban rail rail_electric rail_fast ship" speed="22.22" length="8.37" width="4.00" shape="136.48,2404.80 136.86,2407.22 137.60,2408.81 138.31,2410.40 138.58,2412.82"/>
    </edge>
    <edge id=":1114046802_1" function="internal">
        <lane id=":1114046802_1_0" index="0" disallow="tram rail_urban rail rail_electric rail_fast ship" speed="5.30" length="4.00" width="4.00" shape="136.48,2404.80 136.23,2407.26 135.34,2408.50"/>
    </edge>
    <edge id=":1114046802_3" function="internal">
        <lane id=":1114046802_3_0" index="0" disallow="tram rail_urban rail rail_electric rail_fast ship" speed="5.30" length="4.00" width="4.00" shape="135.34,2408.50 133.81,2408.55 131.63,2407.39"/>
    </edge>
    <edge id=":1114046802_2" function="internal">
        <lane id=":1114046802_2_0" index="0" disallow="tram rail_urban rail rail_electric rail_fast ship" speed="7.36" length="6.35" width="4.00" shape="134.58,2412.72 134.42,2411.19 133.88,2409.79 132.95,2408.52 131.63,2407.39"/>
    </edge>
    <edge id=":1114046804_0" function="internal">
        <lane id=":1114046804_0_0" index="0" disallow="tram rail_urban rail rail_electric rail_fast ship" speed="22.22" length="8.63" width="4.00" shape="120.59,2410.17 119.68,2412.55 119.19,2414.24 118.96,2415.99 118.83,2418.54"/>
    </edge>
    <edge id=":1114046804_1" function="internal">
        <lane id=":1114046804_1_0" index="0" disallow="tram rail_urban rail rail_electric rail_fast ship" speed="22.22" length="8.64" width="4.00" shape="115.11,2409.75 114.84,2418.39"/>
    </edge>
    <edge id=":1114067457_0" function="internal">
        <lane id=":1114067457_0_0" index="0" disallow="tram rail_urban rail rail_electric rail_fast ship" speed="22.22" length="7.87" width="4.00" shape="122.25,2830.52 121.84,2832.77 121.06,2834.21 120.24,2835.65 119.76,2837.89"/>
    </edge>
    <edge id=":1114067457_1" function="internal">
        <lane id=":1114067457_1_0" index="0" disallow="tram rail_urban rail rail_electric rail_fast ship" speed="7.88" length="6.14" width="4.00" shape="115.21,2835.52 116.51,2834.30 117.44,2833.05 118.02,2831.74 118.25,2830.39"/>
    </edge>
    <edge id=":1114067457_2" function="internal">
        <lane id=":1114067457_2_0" index="0" disallow="tram rail_urban rail rail_electric rail_fast ship" speed="5.20" length="4.03" width="4.00" shape="115.21,2835.52 117.37,2834.15 118.85,2834.09"/>
    </edge>
    <edge id=":1114067457_3" function="internal">
        <lane id=":1114067457_3_0" index="0" disallow="tram rail_urban rail rail_electric rail_fast ship" speed="5.20" length="4.03" width="4.00" shape="118.85,2834.09 119.64,2835.34 119.76,2837.89"/>
    </edge>
    <edge id=":1114067460_0" function="internal">
        <lane id=":1114067460_0_0" index="0" disallow="pedestrian bicycle tram rail_urban rail rail_electric rail_fast ship" speed="25.00" length="8.33" width="4.00" shape="88.76,2988.55 88.28,2990.98 88.03,2992.65 87.90,2994.34 87.83,2996.81"/>
    </edge>
    <edge id=":1114067460_1" function="internal">
        <lane id=":1114067460_1_0" index="0" disallow="pedestrian bicycle tram rail_urban rail rail_electric rail_fast ship" speed="27.78" length="8.42" width="4.00" shape="84.09,2988.34 83.83,2996.71"/>
        <lane id=":1114067460_1_1" index="1" disallow="pedestrian bicycle tram rail_urban rail rail_electric rail_fast ship" speed="27.78" length="8.42" width="4.00" shape="80.09,2988.19 79.83,2996.61"/>
        <lane id=":1114067460_1_2" index="2" disallow="pedestrian bicycle tram rail_urban rail rail_electric rail_fast ship" speed="27.78" length="8.42" width="4.00" shape="76.09,2988.05 75.83,2996.51"/>
    </edge>
    <edge id=":1114067486_0" function="internal">
        <lane id=":1114067486_0_0" index="0" disallow="tram rail_urban rail rail_electric rail_fast ship" speed="7.81" length="4.32" width="4.00" shape="102.81,2829.81 102.80,2831.08 102.94,2831.96 103.33,2832.76 104.07,2833.79"/>
    </edge>
    <edge id=":1114067486_1" function="internal">
        <lane id=":1114067486_1_0" index="0" disallow="tram rail_urban rail rail_electric rail_fast ship" speed="22.22" length="4.48" width="4.00" shape="98.82,2829.66 98.67,2834.13"/>
    </edge>
    <edge id=":1192323471_0" function="internal">
        <lane id=":1192323471_0_0" index="0" disallow="tram rail_urban rail rail_electric rail_fast ship" speed="8.30" length="4.21" width="4.00" shape="66.80,2414.39 66.82,2413.15 66.70,2412.30 66.35,2411.50 65.69,2410.46"/>
    </edge>
    <edge id=":1192323471_1" function="internal">
        <lane id=":1192323471_1_0" index="0" disallow="tram rail_urban rail rail_electric rail_fast ship" speed="22.22" length="4.35" width="4.00" shape="70.80,2414.54 70.92,2410.20"/>
    </edge>
    <edge id=":1192323479_0" function="internal">
        <lane id=":1192323479_0_0" index="0" disallow="tram rail_urban rail rail_electric rail_fast ship" speed="9.92" length="5.26" width="4.00" shape="184.83,1230.40 185.06,1231.94 185.30,1233.01 185.79,1233.96 186.76,1235.14"/>
    </edge>
    <edge id=":1192323479_1" function="internal">
        <lane id=":1192323479_1_0" index="0" disallow="tram rail_urban rail rail_electric rail_fast ship" speed="11.16" length="4.97" width="4.00" shape="181.09,1233.69 182.88,1233.96 184.24,1233.92 185.44,1234.12 186.76,1235.14"/>
        <lane id=":1192323479_1_1" index="1" disallow="tram rail_urban rail rail_electric rail_fast ship" speed="9.03" length="4.97" width="4.00" shape="179.94,1237.52 183.80,1237.83"/>
    </edge>
    <edge id=":1192323485_0" function="internal">
        <lane id=":1192323485_0_0" index="0" disallow="tram rail_urban rail rail_electric rail_fast ship" speed="9.74" length="5.46" width="4.00" shape="185.57,1329.56 184.34,1330.57 183.67,1331.45 183.23,1332.51 182.71,1334.05"/>
    </edge>
    <edge id=":1192323485_1" function="internal">
        <lane id=":1192323485_1_0" index="0" disallow="tram rail_urban rail rail_electric rail_fast ship" speed="12.02" length="5.24" width="4.00" shape="185.57,1329.56 184.03,1330.35 182.79,1330.39 181.44,1330.17 179.59,1330.17"/>
        <lane id=":1192323485_1_1" index="1" disallow="tram rail_urban rail rail_electric rail_fast ship" speed="10.09" length="5.24" width="4.00" shape="183.20,1326.34 182.15,1326.79 181.29,1326.63 180.36,1326.28 179.09,1326.20"/>
    </edge>
    <edge id=":1192323488_0" function="internal">
        <lane id=":1192323488_0_0" index="0" disallow="tram rail_urban rail rail_electric rail_fast ship" speed="7.97" length="6.00" width="4.00" shape="55.46,2407.63 54.20,2408.82 53.27,2410.05 52.69,2411.32 52.45,2412.62"/>
    </edge>
    <edge id=":1192323488_1" function="internal">
        <lane id=":1192323488_1_0" index="0" disallow="tram rail_urban rail rail_electric rail_fast ship" speed="5.18" length="4.01" width="4.00" shape="55.46,2407.63 53.32,2409.01 51.85,2409.08"/>
    </edge>
    <edge id=":1192323488_3" function="internal">
        <lane id=":1192323488_3_0" index="0" disallow="tram rail_urban rail rail_electric rail_fast ship" speed="5.18" length="4.01" width="4.00" shape="51.85,2409.08 51.07,2407.84 50.96,2405.30"/>
    </edge>
    <edge id=":1192323488_2" function="internal">
        <lane id=":1192323488_2_0" index="0" disallow="tram rail_urban rail rail_electric rail_fast ship" speed="22.22" length="7.63" width="4.00" shape="48.45,2412.41 48.89,2410.24 49.68,2408.85 50.48,2407.46 50.96,2405.30"/>
    </edge>
    <edge id=":1192323490_0" function="internal">
        <lane id=":1192323490_0_0" index="0" disallow="tram rail_urban rail rail_electric rail_fast ship" speed="22.22" length="20.65" width="4.00" shape="137.42,1882.19 136.89,1902.84"/>
    </edge>
    <edge id=":1192323490_1" function="internal">
        <lane id=":1192323490_1_0" index="0" disallow="pedestrian bicycle tram rail_urban rail rail_electric rail_fast ship" speed="22.22" length="20.64" width="4.00" shape="137.42,1882.19 136.79,1886.75 135.44,1892.27 133.88,1897.76 132.61,1902.23"/>
    </edge>
    <edge id=":1192323492_0" function="internal">
        <lane id=":1192323492_0_0" index="0" disallow="pedestrian bicycle tram rail_urban rail rail_electric rail_fast ship" speed="25.00" length="8.29" width="4.00" shape="58.09,2915.86 58.53,2913.44 58.76,2911.78 58.89,2910.10 58.98,2907.64"/>
    </edge>
    <edge id=":1192323492_1" function="internal">
        <lane id=":1192323492_1_0" index="0" disallow="pedestrian bicycle tram rail_urban rail rail_electric rail_fast ship" speed="27.78" length="8.27" width="4.00" shape="62.71,2916.05 62.98,2907.77"/>
        <lane id=":1192323492_1_1" index="1" disallow="pedestrian bicycle tram rail_urban rail rail_electric rail_fast ship" speed="27.78" length="8.27" width="4.00" shape="66.71,2916.18 66.98,2907.91"/>
        <lane id=":1192323492_1_2" index="2" disallow="pedestrian bicycle tram rail_urban rail rail_electric rail_fast ship" speed="27.78" length="8.27" width="4.00" shape="70.71,2916.30 70.97,2908.05"/>
    </edge>
    <edge id=":1192323497_0" function="internal">
        <lane id=":1192323497_0_0" index="0" disallow="tram rail_urban rail rail_electric rail_fast ship" speed="22.22" length="27.66" width="4.00" shape="127.13,2218.84 127.54,2223.83 128.63,2230.70 129.69,2238.51 130.05,2246.31"/>
    </edge>
    <edge id=":1192323497_1" function="internal">
        <lane id=":1192323497_1_0" index="0" disallow="tram rail_urban rail rail_electric rail_fast ship" speed="22.22" length="27.36" width="4.00" shape="122.33,2219.14 123.30,2224.04 124.62,2230.77 125.72,2238.44 126.05,2246.19"/>
    </edge>
    <edge id=":1192323514_0" function="internal">
        <lane id=":1192323514_0_0" index="0" disallow="tram rail_urban rail rail_electric rail_fast ship" speed="12.60" length="12.09" width="4.00" shape="48.66,2834.68 51.09,2832.32 53.20,2830.37 54.72,2828.18 55.38,2825.09"/>
    </edge>
    <edge id=":1192323514_1" function="internal">
        <lane id=":1192323514_1_0" index="0" disallow="tram rail_urban rail rail_electric rail_fast ship" speed="6.56" length="14.79" width="4.00" shape="48.66,2834.68 52.44,2831.18 55.11,2830.33 56.65,2832.13 57.08,2836.58"/>
    </edge>
    <edge id=":1192323514_2" function="internal">
        <lane id=":1192323514_2_0" index="0" disallow="tram rail_urban rail rail_electric rail_fast ship" speed="22.22" length="11.67" width="4.00" shape="53.08,2836.49 53.46,2833.30 54.20,2830.79 54.95,2828.28 55.38,2825.09"/>
    </edge>
    <edge id=":1192323515_0" function="internal">
        <lane id=":1192323515_0_0" index="0" disallow="pedestrian bicycle tram rail_urban rail rail_electric rail_fast ship" speed="25.00" length="27.38" width="4.00" shape="113.61,2162.61 113.94,2171.90 115.05,2179.39 116.37,2185.26 117.36,2189.64"/>
    </edge>
    <edge id=":1192323515_1" function="internal">
        <lane id=":1192323515_1_0" index="0" disallow="pedestrian bicycle tram rail_urban rail rail_electric rail_fast ship" speed="27.78" length="27.34" width="4.00" shape="113.61,2162.61 112.59,2189.96"/>
        <lane id=":1192323515_1_1" index="1" disallow="pedestrian bicycle tram rail_urban rail rail_electric rail_fast ship" speed="27.78" length="27.34" width="4.00" shape="109.61,2162.51 108.59,2189.83"/>
        <lane id=":1192323515_1_2" index="2" disallow="pedestrian bicycle tram rail_urban rail rail_electric rail_fast ship" speed="27.78" length="27.34" width="4.00" shape="105.61,2162.41 104.59,2189.70"/>
    </edge>
    <edge id=":1192323519_0" function="internal">
        <lane id=":1192323519_0_0" index="0" disallow="tram rail_urban rail rail_electric rail_fast ship" speed="22.22" length="8.41" width="4.00" shape="67.64,2195.93 68.08,2187.53"/>
    </edge>
    <edge id=":1192323519_1" function="internal">
        <lane id=":1192323519_1_0" index="0" disallow="pedestrian bicycle tram rail_urban rail rail_electric rail_fast ship" speed="22.22" length="8.35" width="4.00" shape="71.64,2196.11 71.76,2193.63 71.92,2191.94 72.22,2190.27 72.76,2187.85"/>
    </edge>
    <edge id=":1192323529_0" function="internal">
        <lane id=":1192323529_0_0" index="0" disallow="pedestrian bicycle tram rail_urban rail rail_electric rail_fast ship" speed="5.42" length="12.06" width="4.00" shape="52.65,2938.68 52.39,2943.16 52.51,2944.67 53.01,2943.21 53.90,2938.78"/>
    </edge>
    <edge id=":1192323529_1" function="internal">
        <lane id=":1192323529_1_0" index="0" disallow="tram rail_urban rail rail_electric rail_fast ship" speed="22.22" length="32.97" width="4.00" shape="52.65,2938.68 50.17,2971.56"/>
    </edge>
    <edge id=":1192323529_2" function="internal">
        <lane id=":1192323529_2_0" index="0" disallow="tram rail_urban rail rail_electric rail_fast ship" speed="6.00" length="1.16" width="4.00" shape="52.65,2938.68 51.71,2939.35"/>
    </edge>
    <edge id=":1192323529_6" function="internal">
        <lane id=":1192323529_6_0" index="0" disallow="tram rail_urban rail rail_electric rail_fast ship" speed="6.00" length="13.57" width="4.00" shape="51.71,2939.35 51.04,2939.82 47.77,2937.84 44.45,2934.26 42.68,2930.62"/>
    </edge>
    <edge id=":1192323529_3" function="internal">
        <lane id=":1192323529_3_0" index="0" disallow="tram rail_urban rail rail_electric rail_fast ship" speed="22.22" length="40.91" width="4.00" shape="46.18,2971.36 45.83,2963.59 44.79,2950.97 43.56,2938.37 42.68,2930.62"/>
    </edge>
    <edge id=":1192323529_4" function="internal">
        <lane id=":1192323529_4_0" index="0" disallow="tram rail_urban rail rail_electric rail_fast ship" speed="22.22" length="33.08" width="4.00" shape="46.18,2971.36 48.67,2938.38"/>
    </edge>
    <edge id=":1192323529_5" function="internal">
        <lane id=":1192323529_5_0" index="0" disallow="pedestrian bicycle tram rail_urban rail rail_electric rail_fast ship" speed="22.22" length="14.45" width="4.00" shape="46.18,2971.36 47.36,2964.86 49.25,2957.25"/>
    </edge>
    <edge id=":1192323529_7" function="internal">
        <lane id=":1192323529_7_0" index="0" disallow="pedestrian bicycle tram rail_urban rail rail_electric rail_fast ship" speed="22.22" length="19.05" width="4.00" shape="49.25,2957.25 49.79,2955.04 52.35,2945.24 53.90,2938.78"/>
    </edge>
    <edge id=":1192323533_0" function="internal">
        <lane id=":1192323533_0_0" index="0" disallow="pedestrian bicycle tram rail_urban rail rail_electric rail_fast ship" speed="25.00" length="8.44" width="4.00" shape="124.21,1934.51 123.60,1936.94 123.27,1938.63 123.12,1940.34 123.04,1942.84"/>
    </edge>
    <edge id=":1192323533_1" function="internal">
        <lane id=":1192323533_1_0" index="0" disallow="pedestrian bicycle tram rail_urban rail rail_electric rail_fast ship" speed="27.78" length="8.55" width="4.00" shape="119.31,1934.24 119.04,1942.74"/>
        <lane id=":1192323533_1_1" index="1" disallow="pedestrian bicycle tram rail_urban rail rail_electric rail_fast ship" speed="27.78" length="8.55" width="4.00" shape="115.31,1934.09 115.04,1942.64"/>
        <lane id=":1192323533_1_2" index="2" disallow="pedestrian bicycle tram rail_urban rail rail_electric rail_fast ship" speed="27.78" length="8.55" width="4.00" shape="111.31,1933.95 111.05,1942.54"/>
    </edge>
    <edge id=":1192323534_0" function="internal">
        <lane id=":1192323534_0_0" index="0" disallow="tram rail_urban rail rail_electric rail_fast ship" speed="22.22" length="8.15" width="4.00" shape="114.42,960.79 114.45,952.65"/>
    </edge>
    <edge id=":1192323534_1" function="internal">
        <lane id=":1192323534_1_0" index="0" disallow="tram rail_urban rail rail_electric rail_fast ship" speed="22.22" length="8.18" width="4.00" shape="109.82,960.66 110.11,958.25 110.27,956.60 110.37,954.94 110.45,952.51"/>
    </edge>
    <edge id=":1192323542_0" function="internal">
        <lane id=":1192323542_0_0" index="0" disallow="pedestrian bicycle tram rail_urban rail rail_electric rail_fast ship" speed="25.00" length="8.36" width="4.00" shape="84.12,2138.51 84.66,2136.09 84.96,2134.42 85.11,2132.72 85.22,2130.25"/>
    </edge>
    <edge id=":1192323542_1" function="internal">
        <lane id=":1192323542_1_0" index="0" disallow="pedestrian bicycle tram rail_urban rail rail_electric rail_fast ship" speed="27.78" length="8.29" width="4.00" shape="88.94,2138.74 89.22,2130.40"/>
        <lane id=":1192323542_1_1" index="1" disallow="pedestrian bicycle tram rail_urban rail rail_electric rail_fast ship" speed="27.78" length="8.29" width="4.00" shape="92.94,2138.85 93.22,2130.56"/>
        <lane id=":1192323542_1_2" index="2" disallow="pedestrian bicycle tram rail_urban rail rail_electric rail_fast ship" speed="27.78" length="8.29" width="4.00" shape="96.94,2138.96 97.21,2130.72"/>
    </edge>
    <edge id=":1192323547_0" function="internal">
        <lane id=":1192323547_0_0" index="0" disallow="tram rail_urban rail rail_electric rail_fast ship" speed="22.22" length="8.38" width="4.00" shape="150.80,1607.84 150.17,1610.25 149.81,1611.91 149.61,1613.61 149.44,1616.09"/>
    </edge>
    <edge id=":1192323547_1" function="internal">
        <lane id=":1192323547_1_0" index="0" disallow="tram rail_urban rail rail_electric rail_fast ship" speed="22.22" length="8.44" width="4.00" shape="146.05,1607.41 145.45,1615.83"/>
    </edge>
    <edge id=":170767826-AddedOffRampNode_0" function="internal">
        <lane id=":170767826-AddedOffRampNode_0_0" index="0" disallow="tram rail_urban rail rail_electric rail_fast ship" speed="22.22" length="8.61" width="4.00" shape="66.97,2516.32 66.44,2513.79 65.13,2512.25 63.81,2510.71 63.28,2508.18"/>
        <lane id=":170767826-AddedOffRampNode_0_1" index="1" disallow="tram rail_urban rail rail_electric rail_fast ship" speed="22.22" length="8.61" width="4.00" shape="66.97,2516.32 67.27,2508.33"/>
    </edge>
    <edge id=":170767830-AddedOffRampNode_0" function="internal">
        <lane id=":170767830-AddedOffRampNode_0_0" index="0" disallow="tram rail_urban rail rail_electric rail_fast ship" speed="22.22" length="8.61" width="4.00" shape="102.78,2727.95 103.30,2730.48 104.62,2732.03 105.94,2733.57 106.46,2736.10"/>
        <lane id=":170767830-AddedOffRampNode_0_1" index="1" disallow="tram rail_urban rail rail_electric rail_fast ship" speed="22.22" length="8.61" width="4.00" shape="102.78,2727.95 102.47,2735.95"/>
    </edge>
    <edge id=":170767830-AddedOnRampNode_0" function="internal">
        <lane id=":170767830-AddedOnRampNode_0_0" index="0" disallow="tram rail_urban rail rail_electric rail_fast ship" speed="22.22" length="8.00" width="4.00" shape="111.27,2509.98 110.96,2517.97"/>
    </edge>
    <edge id=":170767844#1-AddedOnRampNode_0" function="internal">
        <lane id=":170767844#1-AddedOnRampNode_0_0" index="0" disallow="pedestrian bicycle tram rail_urban rail rail_electric rail_fast ship" speed="27.78" length="8.00" width="4.00" shape="81.50,3088.51 81.30,3096.51"/>
        <lane id=":170767844#1-AddedOnRampNode_0_1" index="1" disallow="pedestrian bicycle tram rail_urban rail rail_electric rail_fast ship" speed="27.78" length="8.00" width="4.00" shape="77.50,3088.41 77.30,3096.41"/>
        <lane id=":170767844#1-AddedOnRampNode_0_2" index="2" disallow="pedestrian bicycle tram rail_urban rail rail_electric rail_fast ship" speed="27.78" length="8.00" width="4.00" shape="73.50,3088.31 73.30,3096.31"/>
    </edge>
    <edge id=":173221626#1-AddedOnRampNode_0" function="internal">
        <lane id=":173221626#1-AddedOnRampNode_0_0" index="0" disallow="tram rail_urban rail rail_electric rail_fast ship" speed="22.22" length="8.00" width="4.00" shape="142.03,1707.55 141.82,1715.55"/>
    </edge>
    <edge id=":173319140-AddedOnRampNode_0" function="internal">
        <lane id=":173319140-AddedOnRampNode_0_0" index="0" disallow="tram rail_urban rail rail_electric rail_fast ship" speed="22.22" length="0.10" width="4.00" shape="67.61,2196.75 67.61,2196.75"/>
        <lane id=":173319140-AddedOnRampNode_0_1" index="1" disallow="tram rail_urban rail rail_electric rail_fast ship" speed="22.22" length="0.10" width="4.00" shape="71.60,2196.92 71.60,2196.92"/>
    </edge>
    <edge id=":173319141-AddedOnRampNode_0" function="internal">
        <lane id=":173319141-AddedOnRampNode_0_0" index="0" disallow="pedestrian bicycle tram rail_urban rail rail_electric rail_fast ship" speed="27.78" length="8.00" width="4.00" shape="92.84,2038.66 93.16,2030.67"/>
        <lane id=":173319141-AddedOnRampNode_0_1" index="1" disallow="pedestrian bicycle tram rail_urban rail rail_electric rail_fast ship" speed="27.78" length="8.00" width="4.00" shape="96.84,2038.82 97.16,2030.83"/>
        <lane id=":173319141-AddedOnRampNode_0_2" index="2" disallow="pedestrian bicycle tram rail_urban rail rail_electric rail_fast ship" speed="27.78" length="8.00" width="4.00" shape="100.84,2038.98 101.15,2030.99"/>
    </edge>
    <edge id=":1819118020_0" function="internal">
        <lane id=":1819118020_0_0" index="0" disallow="tram rail_urban rail rail_electric rail_fast ship" speed="22.22" length="8.46" width="4.00" shape="149.62,1559.13 149.17,1567.58"/>
    </edge>
    <edge id=":1819118020_1" function="internal">
        <lane id=":1819118020_1_0" index="0" disallow="pedestrian bicycle tram rail_urban rail rail_electric rail_fast ship" speed="22.22" length="8.24" width="4.00" shape="145.62,1559.02 145.55,1561.46 145.44,1563.14 145.24,1564.80 144.88,1567.22"/>
    </edge>
    <edge id=":1819118022_0" function="internal">
        <lane id=":1819118022_0_0" index="0" disallow="pedestrian bicycle tram rail_urban rail rail_electric rail_fast ship" speed="25.00" length="8.23" width="4.00" shape="135.01,1631.54 134.65,1633.96 134.45,1635.62 134.33,1637.28 134.23,1639.72"/>
    </edge>
    <edge id=":1819118022_1" function="internal">
        <lane id=":1819118022_1_0" index="0" disallow="pedestrian bicycle tram rail_urban rail rail_electric rail_fast ship" speed="27.78" length="8.18" width="4.00" shape="130.51,1631.37 130.24,1639.57"/>
        <lane id=":1819118022_1_1" index="1" disallow="pedestrian bicycle tram rail_urban rail rail_electric rail_fast ship" speed="27.78" length="8.18" width="4.00" shape="126.51,1631.25 126.24,1639.43"/>
        <lane id=":1819118022_1_2" index="2" disallow="pedestrian bicycle tram rail_urban rail rail_electric rail_fast ship" speed="27.78" length="8.18" width="4.00" shape="122.52,1631.13 122.24,1639.28"/>
    </edge>
    <edge id=":266112277_0" function="internal">
        <lane id=":266112277_0_0" index="0" disallow="tram rail_urban rail rail_electric rail_fast ship" speed="22.22" length="22.09" width="4.00" shape="169.54,929.23 169.77,934.06 170.52,940.20 171.43,946.33 172.13,951.14"/>
    </edge>
    <edge id=":266112277_1" function="internal">
        <lane id=":266112277_1_0" index="0" disallow="tram rail_urban rail rail_electric rail_fast ship" speed="22.22" length="22.09" width="4.00" shape="169.54,929.23 167.84,951.25"/>
    </edge>
    <edge id=":332616100_0" function="internal">
        <lane id=":332616100_0_0" index="0" disallow="tram rail_urban rail rail_electric rail_fast ship" speed="7.76" length="5.95" width="4.00" shape="36.78,2827.93 36.92,2829.28 37.39,2830.59 38.21,2831.86 39.37,2833.08"/>
    </edge>
    <edge id=":332616100_1" function="internal">