<?xml version="1.0" encoding="UTF-8"?>

<!-- generated on Tue 08 Oct 2019 03:29:12 PM by Eclipse SUMO netedit Version v1_2_0+1287-e3a0083b72
<configuration xmlns:xsi="http://www.w3.org/2001/XMLSchema-instance" xsi:noNamespaceSchemaLocation="http://sumo.dlr.de/xsd/netconvertConfiguration.xsd">

    <input>
        <sumo-net-file value="/home/leeyiyuan/carla/Data/beijing.net.xml"/>
    </input>

    <output>
        <output-file value="/home/leeyiyuan/carla/Data/beijing.net.xml"/>
    </output>

    <processing>
        <geometry.max-grade.fix value="false"/>
        <offset.disable-normalization value="true"/>
        <lefthand value="false"/>
    </processing>

    <junctions>
        <no-turnarounds value="true"/>
        <junctions.corner-detail value="5"/>
        <junctions.limit-turn-speed value="5.5"/>
        <rectangular-lane-cut value="false"/>
    </junctions>

    <pedestrian>
        <walkingareas value="false"/>
    </pedestrian>

</configuration>
-->

<net version="1.3" junctionCornerDetail="5" limitTurnSpeed="5.50" xmlns:xsi="http://www.w3.org/2001/XMLSchema-instance" xsi:noNamespaceSchemaLocation="http://sumo.dlr.de/xsd/net_file.xsd">

    <location netOffset="-12958810.65,-4853486.22" convBoundary="0.00,0.00,1978.24,3695.28" origBoundary="116.270888,39.897975,116.610580,39.990929" projParameter="+proj=merc +a=6378137 +b=6378137 +lat_ts=0.0 +lon_0=0.0 +x_0=0.0 +y_0=0 +k=1.0 +units=m +nadgrids=@null +wktext +no_defs"/>

    <type id="highway.bridleway" priority="1" numLanes="1" speed="2.78" allow="pedestrian" oneway="1" width="2.00"/>
    <type id="highway.bus_guideway" priority="1" numLanes="1" speed="27.78" allow="bus" oneway="1"/>
    <type id="highway.cycleway" priority="1" numLanes="1" speed="8.33" allow="bicycle" oneway="0" width="1.00"/>
    <type id="highway.footway" priority="1" numLanes="1" speed="2.78" allow="pedestrian" oneway="1" width="2.00"/>
    <type id="highway.ford" priority="1" numLanes="1" speed="2.78" allow="army" oneway="0"/>
    <type id="highway.living_street" priority="2" numLanes="1" speed="2.78" disallow="tram rail_urban rail rail_electric rail_fast ship" oneway="0"/>
    <type id="highway.motorway" priority="14" numLanes="2" speed="39.44" allow="private emergency authority army vip passenger hov taxi bus coach delivery truck trailer motorcycle evehicle custom1 custom2" oneway="1"/>
    <type id="highway.motorway_link" priority="9" numLanes="1" speed="22.22" allow="private emergency authority army vip passenger hov taxi bus coach delivery truck trailer motorcycle evehicle custom1 custom2" oneway="1"/>
    <type id="highway.path" priority="1" numLanes="1" speed="2.78" allow="pedestrian bicycle" oneway="1" width="2.00"/>
    <type id="highway.pedestrian" priority="1" numLanes="1" speed="2.78" allow="pedestrian" oneway="1" width="2.00"/>
    <type id="highway.primary" priority="12" numLanes="2" speed="27.78" disallow="tram rail_urban rail rail_electric rail_fast ship" oneway="0"/>
    <type id="highway.primary_link" priority="7" numLanes="1" speed="22.22" disallow="tram rail_urban rail rail_electric rail_fast ship" oneway="0"/>
    <type id="highway.raceway" priority="15" numLanes="2" speed="83.33" allow="vip" oneway="0"/>
    <type id="highway.residential" priority="3" numLanes="1" speed="13.89" disallow="tram rail_urban rail rail_electric rail_fast ship" oneway="0"/>
    <type id="highway.secondary" priority="11" numLanes="2" speed="27.78" disallow="tram rail_urban rail rail_electric rail_fast ship" oneway="0"/>
    <type id="highway.secondary_link" priority="6" numLanes="1" speed="22.22" disallow="tram rail_urban rail rail_electric rail_fast ship" oneway="0"/>
    <type id="highway.service" priority="1" numLanes="1" speed="5.56" allow="pedestrian delivery bicycle" oneway="0"/>
    <type id="highway.stairs" priority="1" numLanes="1" speed="1.39" allow="pedestrian" oneway="1" width="2.00"/>
    <type id="highway.step" priority="1" numLanes="1" speed="1.39" allow="pedestrian" oneway="1" width="2.00"/>
    <type id="highway.steps" priority="1" numLanes="1" speed="1.39" allow="pedestrian" oneway="1" width="2.00"/>
    <type id="highway.tertiary" priority="10" numLanes="1" speed="22.22" disallow="tram rail_urban rail rail_electric rail_fast ship" oneway="0"/>
    <type id="highway.tertiary_link" priority="5" numLanes="1" speed="22.22" disallow="tram rail_urban rail rail_electric rail_fast ship" oneway="0"/>
    <type id="highway.track" priority="1" numLanes="1" speed="5.56" disallow="tram rail_urban rail rail_electric rail_fast ship" oneway="0"/>
    <type id="highway.trunk" priority="13" numLanes="2" speed="27.78" disallow="pedestrian bicycle tram rail_urban rail rail_electric rail_fast ship" oneway="0"/>
    <type id="highway.trunk_link" priority="8" numLanes="1" speed="22.22" disallow="pedestrian bicycle tram rail_urban rail rail_electric rail_fast ship" oneway="0"/>
    <type id="highway.unclassified" priority="4" numLanes="1" speed="13.89" disallow="tram rail_urban rail rail_electric rail_fast ship" oneway="0"/>
    <type id="highway.unsurfaced" priority="1" numLanes="1" speed="8.33" disallow="tram rail_urban rail rail_electric rail_fast ship" oneway="0"/>
    <type id="railway.highspeed" priority="21" numLanes="1" speed="69.44" allow="rail_fast" oneway="1"/>
    <type id="railway.light_rail" priority="19" numLanes="1" speed="27.78" allow="rail_urban" oneway="1"/>
    <type id="railway.preserved" priority="16" numLanes="1" speed="27.78" allow="rail" oneway="1"/>
    <type id="railway.rail" priority="20" numLanes="1" speed="44.44" allow="rail" oneway="1"/>
    <type id="railway.subway" priority="18" numLanes="1" speed="27.78" allow="rail_urban" oneway="1"/>
    <type id="railway.tram" priority="17" numLanes="1" speed="13.89" allow="tram" oneway="1"/>

    <edge id=":103255993#0-AddedOnRampNode_0" function="internal">
        <lane id=":103255993#0-AddedOnRampNode_0_0" index="0" disallow="tram rail_urban rail rail_electric rail_fast ship" speed="22.22" length="8.61" width="4.00" shape="1913.41,860.69 1914.11,858.20 1915.53,856.75 1916.95,855.30 1917.65,852.81"/>
        <lane id=":103255993#0-AddedOnRampNode_0_1" index="1" disallow="tram rail_urban rail rail_electric rail_fast ship" speed="22.22" length="8.61" width="4.00" shape="1917.41,860.81 1917.65,852.81"/>
    </edge>
    <edge id=":1114046804_0" function="internal">
        <lane id=":1114046804_0_0" index="0" disallow="tram rail_urban rail rail_electric rail_fast ship" speed="22.22" length="8.60" width="4.00" shape="1914.51,2410.07 1915.07,2412.60 1916.40,2414.14 1917.72,2415.67 1918.24,2418.20"/>
        <lane id=":1114046804_0_1" index="1" disallow="tram rail_urban rail rail_electric rail_fast ship" speed="22.22" length="8.60" width="4.00" shape="1914.51,2410.07 1914.25,2418.04"/>
    </edge>
    <edge id=":1114067460_0" function="internal">
        <lane id=":1114067460_0_0" index="0" disallow="pedestrian bicycle tram rail_urban rail rail_electric rail_fast ship" speed="25.00" length="8.33" width="4.00" shape="1888.16,2988.56 1887.68,2990.99 1887.43,2992.66 1887.31,2994.35 1887.23,2996.82"/>
    </edge>
    <edge id=":1114067460_1" function="internal">
        <lane id=":1114067460_1_0" index="0" disallow="pedestrian bicycle tram rail_urban rail rail_electric rail_fast ship" speed="27.78" length="8.42" width="4.00" shape="1883.49,2988.35 1883.23,2996.72"/>
        <lane id=":1114067460_1_1" index="1" disallow="pedestrian bicycle tram rail_urban rail rail_electric rail_fast ship" speed="27.78" length="8.42" width="4.00" shape="1879.49,2988.21 1879.23,2996.62"/>
        <lane id=":1114067460_1_2" index="2" disallow="pedestrian bicycle tram rail_urban rail rail_electric rail_fast ship" speed="27.78" length="8.42" width="4.00" shape="1875.49,2988.06 1875.24,2996.52"/>
    </edge>
    <edge id=":1114067486_0" function="internal">
        <lane id=":1114067486_0_0" index="0" disallow="tram rail_urban rail rail_electric rail_fast ship" speed="22.22" length="8.61" width="4.00" shape="1902.28,2828.03 1901.56,2830.51 1900.13,2831.96 1898.72,2833.40 1898.03,2835.88"/>
        <lane id=":1114067486_0_1" index="1" disallow="tram rail_urban rail rail_electric rail_fast ship" speed="22.22" length="8.61" width="4.00" shape="1898.29,2827.88 1898.03,2835.88"/>
    </edge>
    <edge id=":1192323471_0" function="internal">
        <lane id=":1192323471_0_0" index="0" disallow="tram rail_urban rail rail_electric rail_fast ship" speed="22.22" length="8.60" width="4.00" shape="1866.13,2416.24 1866.85,2413.76 1868.28,2412.31 1869.69,2410.87 1870.36,2408.39"/>
        <lane id=":1192323471_0_1" index="1" disallow="tram rail_urban rail rail_electric rail_fast ship" speed="22.22" length="8.60" width="4.00" shape="1870.13,2416.39 1870.36,2408.39"/>
    </edge>
    <edge id=":1192323490_0" function="internal">
        <lane id=":1192323490_0_0" index="0" disallow="tram rail_urban rail rail_electric rail_fast ship" speed="22.22" length="8.51" width="4.00" shape="1940.89,1879.80 1940.59,1888.30"/>
    </edge>
    <edge id=":1192323490_1" function="internal">
        <lane id=":1192323490_1_0" index="0" disallow="pedestrian bicycle tram rail_urban rail rail_electric rail_fast ship" speed="22.22" length="8.44" width="4.00" shape="1936.89,1879.69 1936.81,1882.19 1936.66,1883.90 1936.33,1885.59 1935.72,1888.01"/>
    </edge>
    <edge id=":1192323492_0" function="internal">
        <lane id=":1192323492_0_0" index="0" disallow="pedestrian bicycle tram rail_urban rail rail_electric rail_fast ship" speed="27.78" length="8.31" width="4.00" shape="1862.12,2915.93 1861.57,2913.40 1860.24,2911.86 1858.92,2910.32 1858.38,2907.79"/>
        <lane id=":1192323492_0_1" index="1" disallow="pedestrian bicycle tram rail_urban rail rail_electric rail_fast ship" speed="27.78" length="8.31" width="4.00" shape="1862.12,2915.93 1862.38,2907.93"/>
        <lane id=":1192323492_0_2" index="2" disallow="pedestrian bicycle tram rail_urban rail rail_electric rail_fast ship" speed="27.78" length="8.31" width="4.00" shape="1866.12,2916.05 1866.37,2908.06"/>
        <lane id=":1192323492_0_3" index="3" disallow="pedestrian bicycle tram rail_urban rail rail_electric rail_fast ship" speed="27.78" length="8.31" width="4.00" shape="1870.12,2916.18 1870.37,2908.20"/>
    </edge>
    <edge id=":1192323497_0" function="internal">
        <lane id=":1192323497_0_0" index="0" disallow="tram rail_urban rail rail_electric rail_fast ship" speed="22.22" length="22.37" width="4.00" shape="1926.43,2221.34 1925.53,2243.70"/>
    </edge>
    <edge id=":1192323497_1" function="internal">
        <lane id=":1192323497_1_0" index="0" disallow="tram rail_urban rail rail_electric rail_fast ship" speed="22.22" length="22.36" width="4.00" shape="1922.14,2221.61 1923.05,2226.44 1924.20,2232.63 1925.18,2238.83 1925.53,2243.70"/>
    </edge>
    <edge id=":1192323514_0" function="internal">
        <lane id=":1192323514_0_0" index="0" disallow="tram rail_urban rail rail_electric rail_fast ship" speed="22.22" length="2.02" width="4.00" shape="1852.69,2827.42 1854.69,2827.19"/>
    </edge>
    <edge id=":1192323515_0" function="internal">
        <lane id=":1192323515_0_0" index="0" disallow="pedestrian bicycle tram rail_urban rail rail_electric rail_fast ship" speed="25.00" length="27.37" width="4.00" shape="1913.01,2162.62 1913.34,2171.90 1914.45,2179.40 1915.77,2185.26 1916.76,2189.65"/>
    </edge>
    <edge id=":1192323515_1" function="internal">
        <lane id=":1192323515_1_0" index="0" disallow="pedestrian bicycle tram rail_urban rail rail_electric rail_fast ship" speed="27.78" length="27.33" width="4.00" shape="1913.01,2162.62 1911.99,2189.97"/>
        <lane id=":1192323515_1_1" index="1" disallow="pedestrian bicycle tram rail_urban rail rail_electric rail_fast ship" speed="27.78" length="27.33" width="4.00" shape="1909.01,2162.52 1907.99,2189.84"/>
        <lane id=":1192323515_1_2" index="2" disallow="pedestrian bicycle tram rail_urban rail rail_electric rail_fast ship" speed="27.78" length="27.33" width="4.00" shape="1905.02,2162.42 1904.00,2189.71"/>
    </edge>
    <edge id=":1192323519_0" function="internal">
        <lane id=":1192323519_0_0" index="0" disallow="tram rail_urban rail rail_electric rail_fast ship" speed="22.22" length="8.41" width="4.00" shape="1867.05,2195.89 1867.49,2187.49"/>
    </edge>
    <edge id=":1192323519_1" function="internal">
        <lane id=":1192323519_1_0" index="0" disallow="pedestrian bicycle tram rail_urban rail rail_electric rail_fast ship" speed="22.22" length="8.35" width="4.00" shape="1871.05,2196.07 1871.17,2193.59 1871.33,2191.90 1871.62,2190.23 1872.17,2187.81"/>
    </edge>
    <edge id=":1192323529_0" function="internal">
        <lane id=":1192323529_0_0" index="0" disallow="tram rail_urban rail rail_electric rail_fast ship" speed="22.22" length="0.26" width="4.00" shape="1845.67,2969.55 1845.68,2969.29"/>
    </edge>
    <edge id=":1192323533_0" function="internal">
        <lane id=":1192323533_0_0" index="0" disallow="pedestrian bicycle tram rail_urban rail rail_electric rail_fast ship" speed="25.00" length="8.44" width="4.00" shape="1923.61,1934.52 1923.00,1936.95 1922.67,1938.64 1922.52,1940.35 1922.44,1942.85"/>
    </edge>
    <edge id=":1192323533_1" function="internal">
        <lane id=":1192323533_1_0" index="0" disallow="pedestrian bicycle tram rail_urban rail rail_electric rail_fast ship" speed="27.78" length="8.55" width="4.00" shape="1918.71,1934.25 1918.44,1942.75"/>
        <lane id=":1192323533_1_1" index="1" disallow="pedestrian bicycle tram rail_urban rail rail_electric rail_fast ship" speed="27.78" length="8.55" width="4.00" shape="1914.71,1934.11 1914.45,1942.65"/>
        <lane id=":1192323533_1_2" index="2" disallow="pedestrian bicycle tram rail_urban rail rail_electric rail_fast ship" speed="27.78" length="8.55" width="4.00" shape="1910.71,1933.96 1910.45,1942.55"/>
    </edge>
    <edge id=":1192323534_0" function="internal">
        <lane id=":1192323534_0_0" index="0" disallow="tram rail_urban rail rail_electric rail_fast ship" speed="22.22" length="8.44" width="4.00" shape="1913.82,960.58 1913.13,958.11 1911.74,956.64 1910.39,955.17 1909.85,952.69"/>
        <lane id=":1192323534_0_1" index="1" disallow="tram rail_urban rail rail_electric rail_fast ship" speed="22.22" length="8.44" width="4.00" shape="1913.82,960.58 1913.85,952.82"/>
    </edge>
    <edge id=":1192323542_0" function="internal">
        <lane id=":1192323542_0_0" index="0" disallow="pedestrian bicycle tram rail_urban rail rail_electric rail_fast ship" speed="25.00" length="8.36" width="4.00" shape="1883.53,2138.49 1884.07,2136.07 1884.37,2134.39 1884.52,2132.70 1884.63,2130.22"/>
    </edge>
    <edge id=":1192323542_1" function="internal">
        <lane id=":1192323542_1_0" index="0" disallow="pedestrian bicycle tram rail_urban rail rail_electric rail_fast ship" speed="27.78" length="8.34" width="4.00" shape="1888.34,2138.76 1888.63,2130.38"/>
        <lane id=":1192323542_1_1" index="1" disallow="pedestrian bicycle tram rail_urban rail rail_electric rail_fast ship" speed="27.78" length="8.34" width="4.00" shape="1892.34,2138.87 1892.62,2130.54"/>
        <lane id=":1192323542_1_2" index="2" disallow="pedestrian bicycle tram rail_urban rail rail_electric rail_fast ship" speed="27.78" length="8.34" width="4.00" shape="1896.33,2138.98 1896.62,2130.69"/>
    </edge>
    <edge id=":1192323547_0" function="internal">
        <lane id=":1192323547_0_0" index="0" disallow="tram rail_urban rail rail_electric rail_fast ship" speed="22.22" length="8.60" width="4.00" shape="1945.43,1607.64 1945.86,1610.18 1947.12,1611.76 1948.39,1613.34 1948.85,1615.88"/>
        <lane id=":1192323547_0_1" index="1" disallow="tram rail_urban rail rail_electric rail_fast ship" speed="22.22" length="8.60" width="4.00" shape="1945.43,1607.64 1944.86,1615.63"/>
    </edge>
    <edge id=":1638688357_0" function="internal">
        <lane id=":1638688357_0_0" index="0" disallow="tram rail_urban rail rail_electric rail_fast ship" speed="22.22" length="0.25" width="4.00" shape="1877.77,2015.94 1877.78,2015.68"/>
    </edge>
    <edge id=":170767826-AddedOffRampNode_0" function="internal">
        <lane id=":170767826-AddedOffRampNode_0_0" index="0" disallow="tram rail_urban rail rail_electric rail_fast ship" speed="22.22" length="8.61" width="4.00" shape="1866.38,2516.32 1865.85,2513.79 1864.53,2512.25 1863.21,2510.70 1862.68,2508.18"/>
        <lane id=":170767826-AddedOffRampNode_0_1" index="1" disallow="tram rail_urban rail rail_electric rail_fast ship" speed="22.22" length="8.61" width="4.00" shape="1866.38,2516.32 1866.68,2508.33"/>
    </edge>
    <edge id=":170767830-AddedOffRampNode_0" function="internal">
        <lane id=":170767830-AddedOffRampNode_0_0" index="0" disallow="tram rail_urban rail rail_electric rail_fast ship" speed="22.22" length="8.61" width="4.00" shape="1902.18,2727.95 1902.70,2730.48 1904.02,2732.03 1905.34,2733.57 1905.86,2736.10"/>
        <lane id=":170767830-AddedOffRampNode_0_1" index="1" disallow="tram rail_urban rail rail_electric rail_fast ship" speed="22.22" length="8.61" width="4.00" shape="1902.18,2727.95 1901.87,2735.95"/>
    </edge>
    <edge id=":170767830-AddedOnRampNode_0" function="internal">
        <lane id=":170767830-AddedOnRampNode_0_0" index="0" disallow="tram rail_urban rail rail_electric rail_fast ship" speed="22.22" length="8.61" width="4.00" shape="1914.66,2510.13 1913.94,2512.61 1912.51,2514.05 1911.08,2515.49 1910.35,2517.97"/>
        <lane id=":170767830-AddedOnRampNode_0_1" index="1" disallow="tram rail_urban rail rail_electric rail_fast ship" speed="22.22" length="8.61" width="4.00" shape="1910.67,2509.97 1910.35,2517.97"/>
    </edge>
    <edge id=":170767844#1-AddedOnRampNode_0" function="internal">
        <lane id=":170767844#1-AddedOnRampNode_0_0" index="0" disallow="pedestrian bicycle tram rail_urban rail rail_electric rail_fast ship" speed="27.78" length="8.31" width="4.00" shape="1884.90,3088.61 1884.21,3091.11 1882.80,3092.56 1881.39,3094.02 1880.70,3096.51"/>
        <lane id=":170767844#1-AddedOnRampNode_0_1" index="1" disallow="pedestrian bicycle tram rail_urban rail rail_electric rail_fast ship" speed="27.78" length="8.31" width="4.00" shape="1880.90,3088.51 1880.70,3096.51"/>
        <lane id=":170767844#1-AddedOnRampNode_0_2" index="2" disallow="pedestrian bicycle tram rail_urban rail rail_electric rail_fast ship" speed="27.78" length="8.31" width="4.00" shape="1876.90,3088.41 1876.70,3096.41"/>
        <lane id=":170767844#1-AddedOnRampNode_0_3" index="3" disallow="pedestrian bicycle tram rail_urban rail rail_electric rail_fast ship" speed="27.78" length="8.31" width="4.00" shape="1872.90,3088.31 1872.70,3096.31"/>
    </edge>
    <edge id=":173221626#3-AddedOffRampNode_0" function="internal">
        <lane id=":173221626#3-AddedOffRampNode_0_0" index="0" disallow="tram rail_urban rail rail_electric rail_fast ship" speed="22.22" length="8.61" width="4.00" shape="1939.53,1779.95 1940.08,1782.47 1941.42,1784.00 1942.75,1785.53 1943.31,1788.05"/>
        <lane id=":173221626#3-AddedOffRampNode_0_1" index="1" disallow="tram rail_urban rail rail_electric rail_fast ship" speed="22.22" length="8.61" width="4.00" shape="1939.53,1779.95 1939.32,1787.95"/>
    </edge>
    <edge id=":173319140#0-AddedOnRampNode_0" function="internal">
        <lane id=":173319140#0-AddedOnRampNode_0_0" index="0" disallow="tram rail_urban rail rail_electric rail_fast ship" speed="22.22" length="0.30" width="4.00" shape="1867.01,2196.90 1867.02,2196.60"/>
        <lane id=":173319140#0-AddedOnRampNode_0_1" index="1" disallow="tram rail_urban rail rail_electric rail_fast ship" speed="22.22" length="0.30" width="4.00" shape="1871.00,2197.08 1871.01,2196.78"/>
    </edge>
    <edge id=":173319141-AddedOnRampNode_0" function="internal">
        <lane id=":173319141-AddedOnRampNode_0_0" index="0" disallow="pedestrian bicycle tram rail_urban rail rail_electric rail_fast ship" speed="27.78" length="8.31" width="4.00" shape="1888.25,2038.51 1888.97,2036.02 1890.40,2034.59 1891.84,2033.15 1892.56,2030.67"/>
        <lane id=":173319141-AddedOnRampNode_0_1" index="1" disallow="pedestrian bicycle tram rail_urban rail rail_electric rail_fast ship" speed="27.78" length="8.31" width="4.00" shape="1892.24,2038.66 1892.56,2030.67"/>
        <lane id=":173319141-AddedOnRampNode_0_2" index="2" disallow="pedestrian bicycle tram rail_urban rail rail_electric rail_fast ship" speed="27.78" length="8.31" width="4.00" shape="1896.24,2038.82 1896.56,2030.83"/>
        <lane id=":173319141-AddedOnRampNode_0_3" index="3" disallow="pedestrian bicycle tram rail_urban rail rail_electric rail_fast ship" speed="27.78" length="8.31" width="4.00" shape="1900.24,2038.98 1900.55,2030.99"/>
    </edge>
    <edge id=":1819087375_0" function="internal">
        <lane id=":1819087375_0_0" index="0" disallow="tram rail_urban rail rail_electric rail_fast ship" speed="22.22" length="0.30" width="4.00" shape="1942.81,1654.85 1942.81,1655.15"/>
    </edge>
    <edge id=":1819118020_0" function="internal">
        <lane id=":1819118020_0_0" index="0" disallow="tram rail_urban rail rail_electric rail_fast ship" speed="22.22" length="8.45" width="4.00" shape="1949.03,1559.12 1948.57,1567.56"/>
    </edge>
    <edge id=":1819118020_1" function="internal">
        <lane id=":1819118020_1_0" index="0" disallow="pedestrian bicycle tram rail_urban rail rail_electric rail_fast ship" speed="22.22" length="8.24" width="4.00" shape="1945.03,1559.01 1944.95,1561.46 1944.85,1563.13 1944.65,1564.79 1944.29,1567.21"/>
    </edge>
    <edge id=":1819118022_0" function="internal">
        <lane id=":1819118022_0_0" index="0" disallow="pedestrian bicycle tram rail_urban rail rail_electric rail_fast ship" speed="25.00" length="8.23" width="4.00" shape="1934.41,1631.58 1934.05,1633.99 1933.84,1635.65 1933.73,1637.32 1933.63,1639.76"/>
    </edge>
    <edge id=":1819118022_1" function="internal">
        <lane id=":1819118022_1_0" index="0" disallow="pedestrian bicycle tram rail_urban rail rail_electric rail_fast ship" speed="27.78" length="8.17" width="4.00" shape="1929.91,1631.41 1929.64,1639.61"/>
        <lane id=":1819118022_1_1" index="1" disallow="pedestrian bicycle tram rail_urban rail rail_electric rail_fast ship" speed="27.78" length="8.17" width="4.00" shape="1925.91,1631.29 1925.64,1639.46"/>
        <lane id=":1819118022_1_2" index="2" disallow="pedestrian bicycle tram rail_urban rail rail_electric rail_fast ship" speed="27.78" length="8.17" width="4.00" shape="1921.91,1631.17 1921.64,1639.31"/>
    </edge>
    <edge id=":266112277_0" function="internal">
        <lane id=":266112277_0_0" index="0" disallow="tram rail_urban rail rail_electric rail_fast ship" speed="22.22" length="0.23" width="4.00" shape="1968.87,930.79 1968.86,931.01"/>
    </edge>
    <edge id=":317994548_0" function="internal">
        <lane id=":317994548_0_0" index="0" disallow="tram rail_urban rail rail_electric rail_fast ship" speed="22.22" length="8.53" width="4.00" shape="1947.31,1639.87 1946.53,1642.31 1945.07,1643.71 1943.65,1645.11 1942.97,1647.56"/>
        <lane id=":317994548_0_1" index="1" disallow="tram rail_urban rail rail_electric rail_fast ship" speed="22.22" length="8.53" width="4.00" shape="1943.32,1639.61 1942.97,1647.56"/>
    </edge>
    <edge id=":332616397_0" function="internal">
        <lane id=":332616397_0_0" index="0" disallow="tram rail_urban rail rail_electric rail_fast ship" speed="22.22" length="24.63" width="4.00" shape="1898.75,2933.70 1898.55,2958.32"/>
    </edge>
    <edge id=":332616397_1" function="internal">
        <lane id=":332616397_1_0" index="0" disallow="pedestrian bicycle tram rail_urban rail rail_electric rail_fast ship" speed="22.22" length="24.61" width="4.00" shape="1898.75,2933.70 1898.27,2938.89 1896.96,2945.82 1895.44,2952.73 1894.31,2957.88"/>
    </edge>
    <edge id=":336375956_0" function="internal">
        <lane id=":336375956_0_0" index="0" disallow="tram rail_urban rail rail_electric rail_fast ship" speed="22.22" length="0.24" width="4.00" shape="1923.22,2317.83 1923.22,2317.90 1923.22,2317.95 1923.21,2318.00 1923.20,2318.07"/>
    </edge>
    <edge id=":336377076_0" function="internal">
        <lane id=":336377076_0_0" index="0" disallow="tram rail_urban rail rail_electric rail_fast ship" speed="22.22" length="9.19" width="4.00" shape="1867.31,2300.98 1866.23,2298.30 1864.67,2296.71 1863.31,2295.11 1862.83,2292.40"/>
        <lane id=":336377076_0_1" index="1" disallow="tram rail_urban rail rail_electric rail_fast ship" speed="22.22" length="9.19" width="4.00" shape="1867.31,2300.98 1866.91,2298.51 1866.72,2296.81 1866.71,2295.10 1866.82,2292.60"/>
    </edge>
    <edge id=":336377310_0" function="internal">
        <lane id=":336377310_0_0" index="0" disallow="tram rail_urban rail rail_electric rail_fast ship" speed="22.22" length="0.49" width="4.00" shape="1882.55,1598.74 1882.53,1598.60 1882.53,1598.50 1882.53,1598.40 1882.55,1598.26"/>
    </edge>
    <edge id=":33681071#1-AddedOnRampNode_0" function="internal">
        <lane id=":33681071#1-AddedOnRampNode_0_0" index="0" disallow="pedestrian bicycle tram rail_urban rail rail_electric rail_fast ship" speed="27.78" length="8.31" width="4.00" shape="1861.50,2815.84 1862.21,2813.35 1863.63,2811.91 1865.06,2810.46 1865.77,2807.98"/>
        <lane id=":33681071#1-AddedOnRampNode_0_1" index="1" disallow="pedestrian bicycle tram rail_urban rail rail_electric rail_fast ship" speed="27.78" length="8.31" width="4.00" shape="1865.50,2815.97 1865.77,2807.98"/>
        <lane id=":33681071#1-AddedOnRampNode_0_2" index="2" disallow="pedestrian bicycle tram rail_urban rail rail_electric rail_fast ship" speed="27.78" length="8.31" width="4.00" shape="1869.49,2816.11 1869.77,2808.11"/>
        <lane id=":33681071#1-AddedOnRampNode_0_3" index="3" disallow="pedestrian bicycle tram rail_urban rail rail_electric rail_fast ship" speed="27.78" length="8.31" width="4.00" shape="1873.49,2816.24 1873.76,2808.25"/>
    </edge>
    <edge id=":453047915_0" function="internal">
        <lane id=":453047915_0_0" index="0" disallow="tram rail_urban rail rail_electric rail_fast ship" speed="22.22" length="0.10" width="4.00" shape="1881.74,1729.86 1881.74,1729.86"/>
    </edge>
    <edge id=":922954330_0" function="internal">
        <lane id=":922954330_0_0" index="0" disallow="tram rail_urban rail rail_electric rail_fast ship" speed="22.22" length="0.30" width="4.00" shape="1930.75,2115.81 1930.73,2116.11"/>
    </edge>
    <edge id=":96147032#1-AddedOnRampNode_0" function="internal">
        <lane id=":96147032#1-AddedOnRampNode_0_0" index="0" disallow="pedestrian bicycle tram rail_urban rail rail_electric rail_fast ship" speed="27.78" length="8.31" width="4.00" shape="1930.23,1731.55 1929.52,1734.03 1928.09,1735.47 1926.66,1736.91 1925.94,1739.39"/>
        <lane id=":96147032#1-AddedOnRampNode_0_1" index="1" disallow="pedestrian bicycle tram rail_urban rail rail_electric rail_fast ship" speed="27.78" length="8.31" width="4.00" shape="1926.24,1731.40 1925.94,1739.39"/>
        <lane id=":96147032#1-AddedOnRampNode_0_2" index="2" disallow="pedestrian bicycle tram rail_urban rail rail_electric rail_fast ship" speed="27.78" length="8.31" width="4.00" shape="1922.24,1731.25 1921.94,1739.25"/>
        <lane id=":96147032#1-AddedOnRampNode_0_3" index="3" disallow="pedestrian bicycle tram rail_urban rail rail_electric rail_fast ship" speed="27.78" length="8.31" width="4.00" shape="1918.24,1731.10 1917.94,1739.10"/>
    </edge>
    <edge id=":96147032#2-AddedOnRampNode_0" function="internal">
        <lane id=":96147032#2-AddedOnRampNode_0_0" index="0" disallow="pedestrian bicycle tram rail_urban rail rail_electric rail_fast ship" speed="27.78" length="8.31" width="4.00" shape="1920.18,2034.58 1919.49,2037.07 1918.08,2038.53 1916.67,2039.99 1915.98,2042.48"/>
        <lane id=":96147032#2-AddedOnRampNode_0_1" index="1" disallow="pedestrian bicycle tram rail_urban rail rail_electric rail_fast ship" speed="27.78" length="8.31" width="4.00" shape="1916.18,2034.48 1915.98,2042.48"/>
        <lane id=":96147032#2-AddedOnRampNode_0_2" index="2" disallow="pedestrian bicycle tram rail_urban rail rail_electric rail_fast ship" speed="27.78" length="8.31" width="4.00" shape="1912.18,2034.38 1911.98,2042.38"/>
        <lane id=":96147032#2-AddedOnRampNode_0_3" index="3" disallow="pedestrian bicycle tram rail_urban rail rail_electric rail_fast ship" speed="27.78" length="8.31" width="4.00" shape="1908.18,2034.28 1907.98,2042.28"/>
    </edge>
    <edge id=":96149456-AddedOffRampNode_0" function="internal">
        <lane id=":96149456-AddedOffRampNode_0_0" index="0" disallow="tram rail_urban rail rail_electric rail_fast ship" speed="22.22" length="8.61" width="4.00" shape="1947.84,1459.18 1948.40,1461.71 1949.73,1463.24 1951.06,1464.77 1951.62,1467.29"/>
        <lane id=":96149456-AddedOffRampNode_0_1" index="1" disallow="tram rail_urban rail rail_electric rail_fast ship" speed="22.22" length="8.61" width="4.00" shape="1947.84,1459.18 1947.62,1467.18"/>
    </edge>

    <edge id="103255970#0" from="332617380" to="1192323529" priority="10" type="highway.tertiary" shape="1827.95,3507.82 1834.61,3367.94 1837.55,3213.43 1843.44,3054.62 1847.67,2969.55">
        <lane id="103255970#0_0" index="0" disallow="tram rail_urban rail rail_electric rail_fast ship" speed="22.22" length="538.57" width="4.00" shape="1825.95,3507.72 1832.61,3367.87 1835.55,3213.37 1841.44,3054.53 1845.67,2969.55"/>
    </edge>
    <edge id="103255970#2" from="1192323529" to="1192323514" priority="10" type="highway.tertiary" shape="1847.67,2969.55 1852.99,2900.56 1854.69,2827.32">
        <lane id="103255970#2_0" index="0" disallow="tram rail_urban rail rail_electric rail_fast ship" speed="22.22" length="142.10" width="4.00" shape="1845.68,2969.29 1850.99,2900.46 1852.69,2827.42"/>