<?xml version="1.0" encoding="UTF-8"?>

<!-- generated on Fri 06 Sep 2019 04:16:04 PM by Eclipse SUMO netedit Version v1_2_0+1287-e3a0083b72
<configuration xmlns:xsi="http://www.w3.org/2001/XMLSchema-instance" xsi:noNamespaceSchemaLocation="http://sumo.dlr.de/xsd/netconvertConfiguration.xsd">

    <input>
        <sumo-net-file value="/home/leeyiyuan/carla/Data/magic.net.xml"/>
    </input>

    <output>
        <output-file value="/home/leeyiyuan/carla/Data/magic.net.xml"/>
    </output>

    <processing>
        <geometry.max-grade.fix value="false"/>
        <offset.disable-normalization value="true"/>
        <lefthand value="true"/>
    </processing>

    <junctions>
        <no-turnarounds value="true"/>
        <junctions.corner-detail value="5"/>
        <junctions.limit-turn-speed value="5.5"/>
        <rectangular-lane-cut value="false"/>
    </junctions>

    <pedestrian>
        <walkingareas value="false"/>
    </pedestrian>

</configuration>
-->

<net version="1.3" junctionCornerDetail="5" lefthand="true" limitTurnSpeed="5.50" xmlns:xsi="http://www.w3.org/2001/XMLSchema-instance" xsi:noNamespaceSchemaLocation="http://sumo.dlr.de/xsd/net_file.xsd">

    <location netOffset="197420.13,-6721279.90" convBoundary="0.00,0.00,732.28,886.39" origBoundary="-1.773796,51.561332,-1.759580,51.568306" projParameter="+proj=merc +a=6378137 +b=6378137 +lat_ts=0.0 +lon_0=0.0 +x_0=0.0 +y_0=0 +k=1.0 +units=m +nadgrids=@null +wktext +no_defs"/>

    <type id="highway.bridleway" priority="1" numLanes="1" speed="2.78" allow="pedestrian" oneway="1" width="2.00"/>
    <type id="highway.bus_guideway" priority="1" numLanes="1" speed="27.78" allow="bus" oneway="1"/>
    <type id="highway.cycleway" priority="1" numLanes="1" speed="8.33" allow="bicycle" oneway="0" width="1.00"/>
    <type id="highway.footway" priority="1" numLanes="1" speed="2.78" allow="pedestrian" oneway="1" width="2.00"/>
    <type id="highway.ford" priority="1" numLanes="1" speed="2.78" allow="army" oneway="0"/>
    <type id="highway.living_street" priority="2" numLanes="1" speed="2.78" disallow="tram rail_urban rail rail_electric rail_fast ship" oneway="0"/>
    <type id="highway.motorway" priority="14" numLanes="2" speed="39.44" allow="private emergency authority army vip passenger hov taxi bus coach delivery truck trailer motorcycle evehicle custom1 custom2" oneway="1"/>
    <type id="highway.motorway_link" priority="9" numLanes="1" speed="22.22" allow="private emergency authority army vip passenger hov taxi bus coach delivery truck trailer motorcycle evehicle custom1 custom2" oneway="1"/>
    <type id="highway.path" priority="1" numLanes="1" speed="2.78" allow="pedestrian bicycle" oneway="1" width="2.00"/>
    <type id="highway.pedestrian" priority="1" numLanes="1" speed="2.78" allow="pedestrian" oneway="1" width="2.00"/>
    <type id="highway.primary" priority="12" numLanes="2" speed="27.78" disallow="tram rail_urban rail rail_electric rail_fast ship" oneway="0"/>
    <type id="highway.primary_link" priority="7" numLanes="1" speed="22.22" disallow="tram rail_urban rail rail_electric rail_fast ship" oneway="0"/>
    <type id="highway.raceway" priority="15" numLanes="2" speed="83.33" allow="vip" oneway="0"/>
    <type id="highway.residential" priority="3" numLanes="1" speed="13.89" disallow="tram rail_urban rail rail_electric rail_fast ship" oneway="0"/>
    <type id="highway.secondary" priority="11" numLanes="2" speed="27.78" disallow="tram rail_urban rail rail_electric rail_fast ship" oneway="0"/>
    <type id="highway.secondary_link" priority="6" numLanes="1" speed="22.22" disallow="tram rail_urban rail rail_electric rail_fast ship" oneway="0"/>
    <type id="highway.service" priority="1" numLanes="1" speed="5.56" allow="pedestrian delivery bicycle" oneway="0"/>
    <type id="highway.stairs" priority="1" numLanes="1" speed="1.39" allow="pedestrian" oneway="1" width="2.00"/>
    <type id="highway.step" priority="1" numLanes="1" speed="1.39" allow="pedestrian" oneway="1" width="2.00"/>
    <type id="highway.steps" priority="1" numLanes="1" speed="1.39" allow="pedestrian" oneway="1" width="2.00"/>
    <type id="highway.tertiary" priority="10" numLanes="1" speed="22.22" disallow="tram rail_urban rail rail_electric rail_fast ship" oneway="0"/>
    <type id="highway.tertiary_link" priority="5" numLanes="1" speed="22.22" disallow="tram rail_urban rail rail_electric rail_fast ship" oneway="0"/>
    <type id="highway.track" priority="1" numLanes="1" speed="5.56" disallow="tram rail_urban rail rail_electric rail_fast ship" oneway="0"/>
    <type id="highway.trunk" priority="13" numLanes="2" speed="27.78" disallow="pedestrian bicycle tram rail_urban rail rail_electric rail_fast ship" oneway="0"/>
    <type id="highway.trunk_link" priority="8" numLanes="1" speed="22.22" disallow="pedestrian bicycle tram rail_urban rail rail_electric rail_fast ship" oneway="0"/>
    <type id="highway.unclassified" priority="4" numLanes="1" speed="13.89" disallow="tram rail_urban rail rail_electric rail_fast ship" oneway="0"/>
    <type id="highway.unsurfaced" priority="1" numLanes="1" speed="8.33" disallow="tram rail_urban rail rail_electric rail_fast ship" oneway="0"/>
    <type id="railway.highspeed" priority="21" numLanes="1" speed="69.44" allow="rail_fast" oneway="1"/>
    <type id="railway.light_rail" priority="19" numLanes="1" speed="27.78" allow="rail_urban" oneway="1"/>
    <type id="railway.preserved" priority="16" numLanes="1" speed="27.78" allow="rail" oneway="1"/>
    <type id="railway.rail" priority="20" numLanes="1" speed="44.44" allow="rail" oneway="1"/>
    <type id="railway.subway" priority="18" numLanes="1" speed="27.78" allow="rail_urban" oneway="1"/>
    <type id="railway.tram" priority="17" numLanes="1" speed="13.89" allow="tram" oneway="1"/>

    <edge id=":1440443334_0" function="internal">
        <lane id=":1440443334_0_0" index="0" disallow="tram rail_urban rail rail_electric rail_fast ship" speed="6.63" length="11.95" width="4.00" shape="260.41,229.47 258.36,227.43 258.04,225.22 259.45,222.84 262.60,220.28"/>
    </edge>
    <edge id=":1440443334_1" function="internal">
        <lane id=":1440443334_1_0" index="0" disallow="tram rail_urban rail rail_electric rail_fast ship" speed="13.41" length="12.26" width="4.00" shape="260.41,229.47 258.23,227.32 257.17,224.97 256.12,222.31 253.98,219.21"/>
    </edge>
    <edge id=":1440443334_2" function="internal">
        <lane id=":1440443334_2_0" index="0" disallow="tram rail_urban rail rail_electric rail_fast ship" speed="7.87" length="13.96" width="4.00" shape="246.74,236.86 249.33,233.47 252.10,231.66 255.06,231.43 258.19,232.79"/>
    </edge>
    <edge id=":1440443334_3" function="internal">
        <lane id=":1440443334_3_0" index="0" disallow="tram rail_urban rail rail_electric rail_fast ship" speed="13.41" length="23.03" width="4.00" shape="246.74,236.86 249.71,232.85 254.06,228.00 258.72,223.43 262.60,220.28"/>
    </edge>
    <edge id=":1440443334_4" function="internal">
        <lane id=":1440443334_4_0" index="0" disallow="tram rail_urban rail rail_electric rail_fast ship" speed="9.65" length="16.19" width="4.00" shape="246.74,236.86 249.67,231.47 251.36,227.18 251.81,224.00 251.03,221.91"/>
    </edge>
    <edge id=":1440443334_5" function="internal">
        <lane id=":1440443334_5_0" index="0" disallow="tram rail_urban rail rail_electric rail_fast ship" speed="13.41" length="14.42" width="4.00" shape="245.12,227.31 248.60,229.98 251.89,230.97 255.07,231.50 258.19,232.79"/>
    </edge>
    <edge id=":1440443334_6" function="internal">
        <lane id=":1440443334_6_0" index="0" disallow="tram rail_urban rail rail_electric rail_fast ship" speed="9.05" length="1.69" width="4.00" shape="248.08,224.61 249.60,225.33"/>
    </edge>
    <edge id=":1440443334_7" function="internal">
        <lane id=":1440443334_7_0" index="0" disallow="tram rail_urban rail rail_electric rail_fast ship" speed="9.05" length="14.29" width="4.00" shape="249.60,225.33 250.11,225.57 253.20,225.17 257.37,223.40 262.60,220.28"/>
    </edge>
    <edge id=":15722117_0" function="internal">
        <lane id=":15722117_0_0" index="0" disallow="tram rail_urban rail rail_electric rail_fast ship" speed="13.41" length="7.64" width="4.00" shape="134.74,213.79 132.50,214.16 130.98,214.46 129.47,214.84 127.29,215.46"/>
    </edge>
    <edge id=":15722117_1" function="internal">
        <lane id=":15722117_1_0" index="0" disallow="tram rail_urban rail rail_electric rail_fast ship" speed="13.41" length="7.73" width="4.00" shape="129.52,223.15 131.50,221.92 132.41,220.27 133.35,218.70 135.39,217.73"/>
        <lane id=":15722117_1_1" index="1" disallow="tram rail_urban rail rail_electric rail_fast ship" speed="13.41" length="7.73" width="4.00" shape="128.41,219.31 130.45,218.72 131.86,218.36 133.29,218.08 135.39,217.73"/>
    </edge>
    <edge id=":18407385_0" function="internal">
        <lane id=":18407385_0_0" index="0" disallow="tram rail_urban rail rail_electric rail_fast ship" speed="13.65" length="12.54" width="4.00" shape="84.26,232.53 81.21,233.91 78.42,234.60 75.50,234.84 72.11,234.87"/>
    </edge>
    <edge id=":18407385_1" function="internal">
        <lane id=":18407385_1_0" index="0" disallow="tram rail_urban rail rail_electric rail_fast ship" speed="13.41" length="12.93" width="4.00" shape="84.26,232.53 81.41,234.39 79.14,236.40 76.99,238.58 74.51,240.96"/>
    </edge>
    <edge id=":18407385_2" function="internal">
        <lane id=":18407385_2_0" index="0" disallow="tram rail_urban rail rail_electric rail_fast ship" speed="13.41" length="11.61" width="4.00" shape="79.81,246.94 82.17,244.61 83.68,242.87 85.32,241.31 88.09,239.56"/>
        <lane id=":18407385_2_1" index="1" disallow="tram rail_urban rail rail_electric rail_fast ship" speed="13.41" length="11.61" width="4.00" shape="77.16,243.95 79.72,241.44 81.38,239.58 83.18,237.93 86.18,236.05"/>
    </edge>
    <edge id=":18407385_4" function="internal">
        <lane id=":18407385_4_0" index="0" disallow="tram rail_urban rail rail_electric rail_fast ship" speed="7.10" length="17.57" width="4.00" shape="77.16,243.95 80.68,239.98 81.02,237.14 78.16,235.44 72.11,234.87"/>
    </edge>
    <edge id=":1965323549_0" function="internal">
        <lane id=":1965323549_0_0" index="0" disallow="tram rail_urban rail rail_electric rail_fast ship" speed="13.41" length="3.86" width="4.00" shape="69.49,246.34 68.64,247.09 67.90,247.46 67.21,247.85 66.52,248.72"/>
    </edge>
    <edge id=":1965323549_1" function="internal">
        <lane id=":1965323549_1_0" index="0" disallow="tram rail_urban rail rail_electric rail_fast ship" speed="13.41" length="2.87" width="4.00" shape="73.49,252.66 73.97,252.15 74.49,252.01 75.06,251.89 75.64,251.45"/>
        <lane id=":1965323549_1_1" index="1" disallow="tram rail_urban rail rail_electric rail_fast ship" speed="13.41" length="2.87" width="4.00" shape="70.00,250.69 70.59,250.00 71.20,249.73 71.85,249.49 72.56,248.89"/>
    </edge>
    <edge id=":1965323549_3" function="internal">
        <lane id=":1965323549_3_0" index="0" disallow="tram rail_urban rail rail_electric rail_fast ship" speed="6.52" length="4.15" width="4.00" shape="63.53,242.76 63.77,243.71 63.77,244.69 63.52,245.70 63.04,246.75"/>
    </edge>
    <edge id=":1965323562_0" function="internal">
        <lane id=":1965323562_0_0" index="0" disallow="tram rail_urban rail rail_electric rail_fast ship" speed="4.08" length="5.84" width="4.00" shape="-1.82,391.89 -1.53,393.67 -0.83,394.54 0.29,394.50 1.82,393.55"/>
    </edge>
    <edge id=":281351084_0" function="internal">
        <lane id=":281351084_0_0" index="0" disallow="tram rail_urban rail rail_electric rail_fast ship" speed="13.65" length="0.83" width="4.00" shape="273.38,239.44 273.21,239.26 273.10,239.13 272.98,239.02 272.79,238.85"/>
    </edge>
    <edge id=":281351084_1" function="internal">
        <lane id=":281351084_1_0" index="0" disallow="tram rail_urban rail rail_electric rail_fast ship" speed="13.65" length="0.28" width="4.00" shape="270.15,241.86 270.21,241.91 270.25,241.95 270.29,241.99 270.35,242.06"/>
    </edge>
    <edge id=":3508958370_0" function="internal">
        <lane id=":3508958370_0_0" index="0" disallow="tram rail_urban rail rail_electric rail_fast ship" speed="12.99" length="23.76" width="4.00" shape="194.70,175.33 196.56,170.53 199.96,166.44 204.92,163.04 211.43,160.35"/>
        <lane id=":3508958370_0_1" index="1" disallow="tram rail_urban rail rail_electric rail_fast ship" speed="13.41" length="23.76" width="4.00" shape="191.44,172.86 194.42,167.29 197.69,163.53 202.15,160.52 208.67,157.21"/>
    </edge>
    <edge id=":3508958370_2" function="internal">
        <lane id=":3508958370_2_0" index="0" disallow="tram rail_urban rail rail_electric rail_fast ship" speed="10.51" length="20.40" width="4.00" shape="191.44,172.86 194.73,165.22 196.72,159.47 197.39,155.61 196.75,153.64"/>
    </edge>
    <edge id=":3508958370_3" function="internal">
        <lane id=":3508958370_3_0" index="0" disallow="tram rail_urban rail rail_electric rail_fast ship" speed="9.65" length="17.04" width="4.00" shape="191.44,172.86 193.93,166.82 195.24,162.12 195.35,158.77 194.27,156.77"/>
    </edge>
    <edge id=":3508958370_4" function="internal">
        <lane id=":3508958370_4_0" index="0" disallow="tram rail_urban rail rail_electric rail_fast ship" speed="11.72" length="20.61" width="4.00" shape="189.30,163.04 191.55,163.50 195.53,162.68 201.24,160.59 208.67,157.21"/>
    </edge>
    <edge id=":3508958370_5" function="internal">
        <lane id=":3508958370_5_0" index="0" disallow="tram rail_urban rail rail_electric rail_fast ship" speed="10.19" length="15.36" width="4.00" shape="191.78,159.90 192.97,159.78 195.73,158.77 200.05,156.88 205.94,154.09"/>
    </edge>
    <edge id=":3508958371_0" function="internal">
        <lane id=":3508958371_0_0" index="0" disallow="tram rail_urban rail rail_electric rail_fast ship" speed="11.67" length="20.26" width="4.00" shape="221.66,145.80 222.46,147.28 225.21,150.03 229.91,154.05 236.57,159.36"/>
    </edge>
    <edge id=":3508958371_1" function="internal">
        <lane id=":3508958371_1_0" index="0" disallow="tram rail_urban rail rail_electric rail_fast ship" speed="9.28" length="15.31" width="4.00" shape="225.58,146.62 226.15,148.06 228.37,150.00 232.23,152.44 237.74,155.39"/>
    </edge>
    <edge id=":3508958371_2" function="internal">
        <lane id=":3508958371_2_0" index="0" disallow="tram rail_urban rail rail_electric rail_fast ship" speed="13.41" length="23.25" width="4.00" shape="214.02,159.53 219.67,158.39 225.11,158.67 230.33,160.36 235.35,163.48"/>
        <lane id=":3508958371_2_1" index="1" disallow="tram rail_urban rail rail_electric rail_fast ship" speed="13.41" length="23.25" width="4.00" shape="214.43,155.31 221.01,154.66 226.90,155.12 232.08,156.69 236.57,159.36"/>
        <lane id=":3508958371_2_2" index="2" disallow="tram rail_urban rail rail_electric rail_fast ship" speed="13.41" length="23.25" width="4.00" shape="214.84,151.18 221.80,150.26 226.70,150.57 231.39,152.24 237.74,155.39"/>
    </edge>
    <edge id=":3508958371_5" function="internal">
        <lane id=":3508958371_5_0" index="0" disallow="tram rail_urban rail rail_electric rail_fast ship" speed="10.79" length="18.80" width="4.00" shape="214.84,151.18 233.41,148.25"/>
    </edge>
    <edge id=":3508958371_6" function="internal">
        <lane id=":3508958371_6_0" index="0" disallow="tram rail_urban rail rail_electric rail_fast ship" speed="9.76" length="15.22" width="4.00" shape="214.84,151.18 221.15,150.01 225.70,149.00 228.48,148.14 229.49,147.43"/>
    </edge>
    <edge id=":3943687182_0" function="internal">
        <lane id=":3943687182_0_0" index="0" disallow="tram rail_urban rail rail_electric rail_fast ship" speed="12.43" length="20.56" width="4.00" shape="258.40,173.37 256.51,175.02 254.61,178.68 252.69,184.36 250.76,192.05"/>
    </edge>
    <edge id=":3943687182_1" function="internal">
        <lane id=":3943687182_1_0" index="0" disallow="tram rail_urban rail rail_electric rail_fast ship" speed="11.02" length="15.99" width="4.00" shape="259.70,177.15 258.78,178.31 257.66,181.21 256.34,185.85 254.82,192.24"/>
    </edge>
    <edge id=":3943687182_2" function="internal">
        <lane id=":3943687182_2_0" index="0" disallow="tram rail_urban rail rail_electric rail_fast ship" speed="13.41" length="22.73" width="4.00" shape="242.04,170.68 244.09,175.50 244.85,180.60 244.33,185.99 242.51,191.65"/>
        <lane id=":3943687182_2_1" index="1" disallow="tram rail_urban rail rail_electric rail_fast ship" speed="13.41" length="22.73" width="4.00" shape="246.27,170.01 248.97,175.92 249.42,180.49 248.41,185.27 246.71,191.85"/>
        <lane id=":3943687182_2_2" index="2" disallow="tram rail_urban rail rail_electric rail_fast ship" speed="13.41" length="22.73" width="4.00" shape="250.50,169.35 253.28,175.49 253.68,180.23 252.56,185.21 250.76,192.05"/>
    </edge>
    <edge id=":3943687182_5" function="internal">
        <lane id=":3943687182_5_0" index="0" disallow="tram rail_urban rail rail_electric rail_fast ship" speed="10.13" length="19.71" width="4.00" shape="250.50,169.35 254.74,176.39 258.12,181.30 260.64,184.07 262.30,184.72"/>
    </edge>
    <edge id=":3943687182_6" function="internal">
        <lane id=":3943687182_6_0" index="0" disallow="tram rail_urban rail rail_electric rail_fast ship" speed="9.23" length="16.18" width="4.00" shape="250.50,169.35 253.90,174.83 256.78,178.58 259.15,180.62 261.00,180.93"/>
    </edge>
    <edge id=":5027476871_0" function="internal">
        <lane id=":5027476871_0_0" index="0" disallow="tram rail_urban rail rail_electric rail_fast ship" speed="12.98" length="29.34" width="4.00" shape="241.20,194.75 237.10,202.24 232.11,207.44 226.23,210.35 219.46,210.97"/>
        <lane id=":5027476871_0_1" index="1" disallow="tram rail_urban rail rail_electric rail_fast ship" speed="13.41" length="29.34" width="4.00" shape="243.82,198.09 238.15,205.84 232.49,211.27 226.85,214.36 221.21,215.11"/>
    </edge>
    <edge id=":5027476871_2" function="internal">
        <lane id=":5027476871_2_0" index="0" disallow="tram rail_urban rail rail_electric rail_fast ship" speed="11.07" length="22.26" width="4.00" shape="246.44,201.42 242.20,208.74 239.73,214.57 239.02,218.92 240.08,221.79"/>
    </edge>
    <edge id=":5027476871_3" function="internal">
        <lane id=":5027476871_3_0" index="0" disallow="tram rail_urban rail rail_electric rail_fast ship" speed="9.45" length="15.93" width="4.00" shape="249.06,204.75 245.74,210.28 243.63,214.51 242.72,217.45 243.03,219.09"/>
    </edge>
    <edge id=":5027476871_4" function="internal">
        <lane id=":5027476871_4_0" index="0" disallow="tram rail_urban rail rail_electric rail_fast ship" speed="13.41" length="30.45" width="4.00" shape="248.93,213.69 242.88,210.26 235.40,209.84 227.32,210.67 219.46,210.97"/>
    </edge>
    <edge id=":5027476871_5" function="internal">
        <lane id=":5027476871_5_0" index="0" disallow="tram rail_urban rail rail_electric rail_fast ship" speed="13.41" length="25.82" width="4.00" shape="245.98,216.39 240.67,213.18 234.81,213.26 228.34,214.58 221.21,215.11"/>
    </edge>
    <edge id=":5027476873_0" function="internal">
        <lane id=":5027476873_0_0" index="0" disallow="tram rail_urban rail rail_electric rail_fast ship" speed="13.34" length="17.29" width="4.00" shape="278.64,197.95 281.10,194.05 284.05,190.93 287.48,188.58 291.40,187.00"/>
    </edge>
    <edge id=":5027476873_1" function="internal">
        <lane id=":5027476873_1_0" index="0" disallow="tram rail_urban rail rail_electric rail_fast ship" speed="10.51" length="17.85" width="4.00" shape="278.64,197.95 281.77,191.53 283.72,186.62 284.49,183.22 284.08,181.32"/>
    </edge>
    <edge id=":5027476873_2" function="internal">
        <lane id=":5027476873_2_0" index="0" disallow="tram rail_urban rail rail_electric rail_fast ship" speed="9.63" length="14.85" width="4.00" shape="278.64,197.95 280.84,193.13 281.98,189.18 282.05,186.13 281.07,183.95"/>
    </edge>
    <edge id=":5027476873_3" function="internal">
        <lane id=":5027476873_3_0" index="0" disallow="tram rail_urban rail rail_electric rail_fast ship" speed="10.56" length="16.77" width="4.00" shape="275.05,189.22 276.72,189.82 280.00,189.65 284.89,188.71 291.40,187.00"/>
    </edge>
    <edge id=":5027476873_4" function="internal">
        <lane id=":5027476873_4_0" index="0" disallow="tram rail_urban rail rail_electric rail_fast ship" speed="9.28" length="12.76" width="4.00" shape="278.06,186.59 280.11,186.41 284.07,185.25 288.07,183.91 290.30,183.15"/>
    </edge>
    <edge id=":5027476875_0" function="internal">
        <lane id=":5027476875_0_0" index="0" disallow="tram rail_urban rail rail_electric rail_fast ship" speed="13.41" length="0.55" width="4.00" shape="137.03,213.81 136.59,213.48"/>
    </edge>
    <edge id=":5027476875_1" function="internal">
        <lane id=":5027476875_1_0" index="0" disallow="tram rail_urban rail rail_electric rail_fast ship" speed="13.41" length="0.78" width="4.00" shape="137.23,217.43 137.67,216.78"/>
    </edge>
    <edge id=":5027476900_0" function="internal">
        <lane id=":5027476900_0_0" index="0" disallow="tram rail_urban rail rail_electric rail_fast ship" speed="13.41" length="0.25" width="4.00" shape="138.75,136.52 138.90,136.61"/>
        <lane id=":5027476900_0_1" index="1" disallow="tram rail_urban rail rail_electric rail_fast ship" speed="13.41" length="0.25" width="4.00" shape="140.72,133.04 140.99,133.20"/>
    </edge>
    <edge id=":5045597172_0" function="internal">
        <lane id=":5045597172_0_0" index="0" disallow="tram rail_urban rail rail_electric rail_fast ship" speed="9.17" length="12.30" width="4.00" shape="220.26,122.47 218.89,124.99 216.82,126.91 214.05,128.21 210.57,128.91"/>
    </edge>
    <edge id=":5045597172_1" function="internal">
        <lane id=":5045597172_1_0" index="0" disallow="tram rail_urban rail rail_electric rail_fast ship" speed="10.58" length="16.66" width="4.00" shape="223.97,123.97 222.09,127.49 219.30,130.14 215.60,131.94 210.98,132.88"/>
    </edge>
    <edge id=":5045597172_2" function="internal">
        <lane id=":5045597172_2_0" index="0" disallow="tram rail_urban rail rail_electric rail_fast ship" speed="10.08" length="16.47" width="4.00" shape="223.97,123.97 222.74,126.65 220.41,131.68 218.30,136.65 217.68,139.16"/>
    </edge>
    <edge id=":5045597172_3" function="internal">
        <lane id=":5045597172_3_0" index="0" disallow="tram rail_urban rail rail_electric rail_fast ship" speed="8.94" length="12.75" width="4.00" shape="223.97,123.97 223.14,126.18 221.72,130.16 220.50,134.09 220.29,136.13"/>
    </edge>
    <edge id=":5045597172_4" function="internal">
        <lane id=":5045597172_4_0" index="0" disallow="tram rail_urban rail rail_electric rail_fast ship" speed="12.48" length="15.07" width="4.00" shape="225.52,130.08 225.13,130.70 222.57,131.37 217.86,132.10 210.98,132.88"/>
    </edge>
    <edge id=":5045597172_5" function="internal">
        <lane id=":5045597172_5_0" index="0" disallow="tram rail_urban rail rail_electric rail_fast ship" speed="11.24" length="12.12" width="4.00" shape="222.91,133.11 211.38,136.86"/>
    </edge>
    <edge id=":55445709_0" function="internal">
        <lane id=":55445709_0_0" index="0" disallow="tram rail_urban rail rail_electric rail_fast ship" speed="4.08" length="5.84" width="4.00" shape="730.64,887.54 732.32,888.19 733.43,888.03 733.96,887.04 733.92,885.24"/>
    </edge>
    <edge id=":cluster_1440443392_3414230200_0" function="internal">
        <lane id=":cluster_1440443392_3414230200_0_0" index="0" disallow="tram rail_urban rail rail_electric rail_fast ship" speed="8.70" length="7.51" width="4.00" shape="244.63,136.68 243.00,135.18 241.82,133.65 241.09,132.08 240.79,130.47"/>
    </edge>
    <edge id=":cluster_1440443392_3414230200_1" function="internal">
        <lane id=":cluster_1440443392_3414230200_1_0" index="0" disallow="tram rail_urban rail rail_electric rail_fast ship" speed="13.41" length="18.47" width="4.00" shape="244.63,136.68 239.93,134.36 235.93,134.28 231.96,134.16 227.39,131.69"/>
        <lane id=":cluster_1440443392_3414230200_1_1" index="1" disallow="tram rail_urban rail rail_electric rail_fast ship" speed="13.41" length="18.47" width="4.00" shape="242.13,139.80 237.40,137.46 233.37,137.36 229.38,137.21 224.78,134.72"/>
    </edge>
    <edge id=":cluster_1440443392_3414230200_3" function="internal">
        <lane id=":cluster_1440443392_3414230200_3_0" index="0" disallow="tram rail_urban rail rail_electric rail_fast ship" speed="7.45" length="16.16" width="4.00" shape="239.63,142.93 235.99,141.54 231.58,141.78 227.69,143.47 225.62,146.42"/>
    </edge>
    <edge id=":cluster_1440443392_3414230200_4" function="internal">
        <lane id=":cluster_1440443392_3414230200_4_0" index="0" disallow="tram rail_urban rail rail_electric rail_fast ship" speed="13.41" length="18.96" width="4.00" shape="233.45,148.05 235.48,142.71 238.01,139.33 240.10,135.92 240.79,130.47"/>
        <lane id=":cluster_1440443392_3414230200_4_1" index="1" disallow="tram rail_urban rail rail_electric rail_fast ship" speed="13.41" length="18.96" width="4.00" shape="229.53,147.24 231.50,142.18 234.01,139.01 236.09,135.81 236.79,130.65"/>
    </edge>
    <edge id=":cluster_1440443392_3414230200_6" function="internal">
        <lane id=":cluster_1440443392_3414230200_6_0" index="0" disallow="tram rail_urban rail rail_electric rail_fast ship" speed="10.10" length="14.08" width="4.00" shape="229.53,147.24 229.79,143.78 229.09,140.54 227.42,137.52 224.78,134.72"/>
    </edge>
    <edge id=":cluster_1440443392_3414230200_7" function="internal">
        <lane id=":cluster_1440443392_3414230200_7_0" index="0" disallow="tram rail_urban rail rail_electric rail_fast ship" speed="6.60" length="5.55" width="4.00" shape="219.55,140.78 220.69,141.94 221.43,143.14 221.76,144.36 221.70,145.61"/>
    </edge>
    <edge id=":cluster_1440443392_3414230200_8" function="internal">
        <lane id=":cluster_1440443392_3414230200_8_0" index="0" disallow="tram rail_urban rail rail_electric rail_fast ship" speed="8.53" length="9.81" width="4.00" shape="222.17,137.75 224.05,139.73 225.26,141.84 225.78,144.07 225.62,146.42"/>
    </edge>
    <edge id=":cluster_1440443392_3414230200_9" function="internal">
        <lane id=":cluster_1440443392_3414230200_9_0" index="0" disallow="tram rail_urban rail rail_electric rail_fast ship" speed="7.41" length="18.57" width="4.00" shape="222.17,137.75 226.22,138.90 231.11,137.56 235.19,134.54 236.79,130.65"/>
    </edge>
    <edge id=":cluster_1440443602_5027476879_5027476898_0" function="internal">
        <lane id=":cluster_1440443602_5027476879_5027476898_0_0" index="0" disallow="tram rail_urban rail rail_electric rail_fast ship" speed="8.42" length="9.81" width="4.00" shape="182.85,132.33 180.32,133.77 177.94,134.50 175.71,134.52 173.64,133.83"/>
    </edge>
    <edge id=":cluster_1440443602_5027476879_5027476898_1" function="internal">
        <lane id=":cluster_1440443602_5027476879_5027476898_1_0" index="0" disallow="tram rail_urban rail rail_electric rail_fast ship" speed="13.41" length="31.06" width="4.00" shape="182.85,132.33 175.51,139.36 171.34,146.91 169.28,153.78 168.29,158.78"/>
    </edge>
    <edge id=":cluster_1440443602_5027476879_5027476898_2" function="internal">
        <lane id=":cluster_1440443602_5027476879_5027476898_2_0" index="0" disallow="tram rail_urban rail rail_electric rail_fast ship" speed="9.54" length="24.97" width="4.00" shape="185.08,135.65 178.65,141.08 175.62,146.18 175.97,150.97 179.71,155.43"/>
    </edge>
    <edge id=":cluster_1440443602_5027476879_5027476898_3" function="internal">
        <lane id=":cluster_1440443602_5027476879_5027476898_3_0" index="0" disallow="tram rail_urban rail rail_electric rail_fast ship" speed="8.08" length="22.89" width="4.00" shape="187.51,139.30 179.96,140.84 176.56,143.53 177.30,147.34 182.19,152.30"/>
    </edge>
    <edge id=":cluster_1440443602_5027476879_5027476898_4" function="internal">
        <lane id=":cluster_1440443602_5027476879_5027476898_4_0" index="0" disallow="tram rail_urban rail rail_electric rail_fast ship" speed="13.41" length="17.97" width="4.00" shape="187.16,146.03 183.17,142.33 180.75,139.40 178.15,136.73 173.64,133.83"/>
        <lane id=":cluster_1440443602_5027476879_5027476898_4_1" index="1" disallow="tram rail_urban rail rail_electric rail_fast ship" speed="13.41" length="17.97" width="4.00" shape="184.68,149.16 180.86,145.60 178.56,142.76 176.10,140.17 171.78,137.37"/>
    </edge>
    <edge id=":cluster_1440443602_5027476879_5027476898_6" function="internal">
        <lane id=":cluster_1440443602_5027476879_5027476898_6_0" index="0" disallow="tram rail_urban rail rail_electric rail_fast ship" speed="9.10" length="24.74" width="4.00" shape="184.68,149.16 179.11,146.16 174.52,146.76 170.91,150.97 168.29,158.78"/>
    </edge>
    <edge id=":cluster_1440443602_5027476879_5027476898_7" function="internal">
        <lane id=":cluster_1440443602_5027476879_5027476898_7_0" index="0" disallow="tram rail_urban rail rail_electric rail_fast ship" speed="7.04" length="8.93" width="4.00" shape="164.24,151.72 166.41,153.00 167.81,154.61 168.44,156.53 168.29,158.78"/>
    </edge>
    <edge id=":cluster_1440443602_5027476879_5027476898_8" function="internal">
        <lane id=":cluster_1440443602_5027476879_5027476898_8_0" index="0" disallow="tram rail_urban rail rail_electric rail_fast ship" speed="13.41" length="16.56" width="4.00" shape="164.24,151.72 168.85,152.95 172.37,152.92 175.69,153.22 179.71,155.43"/>