<?xml version="1.0" encoding="UTF-8"?>

<!-- generated on Fri 23 Aug 2019 10:51:28 PM by Eclipse SUMO netedit Version v1_2_0+1287-e3a0083b72
<configuration xmlns:xsi="http://www.w3.org/2001/XMLSchema-instance" xsi:noNamespaceSchemaLocation="http://sumo.dlr.de/xsd/netconvertConfiguration.xsd">

    <input>
        <sumo-net-file value="/home/leeyiyuan/carla/Data/map.net.xml"/>
    </input>

    <output>
        <output-file value="/home/leeyiyuan/carla/Data/map.net.xml"/>
    </output>

    <processing>
        <geometry.max-grade.fix value="false"/>
        <offset.disable-normalization value="true"/>
        <lefthand value="true"/>
    </processing>

    <junctions>
        <no-turnarounds value="true"/>
        <junctions.corner-detail value="5"/>
        <junctions.limit-turn-speed value="5.5"/>
        <rectangular-lane-cut value="false"/>
    </junctions>

    <pedestrian>
        <walkingareas value="false"/>
    </pedestrian>

</configuration>
-->

<net version="1.3" junctionCornerDetail="5" lefthand="true" limitTurnSpeed="5.50" xmlns:xsi="http://www.w3.org/2001/XMLSchema-instance" xsi:noNamespaceSchemaLocation="http://sumo.dlr.de/xsd/net_file.xsd">

    <location netOffset="-11551102.28,-143022.13" convBoundary="0.00,0.00,2435.01,2775.16" origBoundary="103.675226,1.265289,103.839792,1.348183" projParameter="+proj=merc +a=6378137 +b=6378137 +lat_ts=0.0 +lon_0=0.0 +x_0=0.0 +y_0=0 +k=1.0 +units=m +nadgrids=@null +wktext +no_defs"/>

    <type id="highway.bridleway" priority="1" numLanes="1" speed="2.78" allow="pedestrian" oneway="1" width="2.00"/>
    <type id="highway.bus_guideway" priority="1" numLanes="1" speed="27.78" allow="bus" oneway="1"/>
    <type id="highway.cycleway" priority="1" numLanes="1" speed="8.33" allow="bicycle" oneway="0" width="1.00"/>
    <type id="highway.footway" priority="1" numLanes="1" speed="2.78" allow="pedestrian" oneway="1" width="2.00"/>
    <type id="highway.ford" priority="1" numLanes="1" speed="2.78" allow="army" oneway="0"/>
    <type id="highway.living_street" priority="2" numLanes="1" speed="2.78" disallow="tram rail_urban rail rail_electric rail_fast ship" oneway="0"/>
    <type id="highway.motorway" priority="14" numLanes="2" speed="39.44" allow="private emergency authority army vip passenger hov taxi bus coach delivery truck trailer motorcycle evehicle custom1 custom2" oneway="1"/>
    <type id="highway.motorway_link" priority="9" numLanes="1" speed="22.22" allow="private emergency authority army vip passenger hov taxi bus coach delivery truck trailer motorcycle evehicle custom1 custom2" oneway="1"/>
    <type id="highway.path" priority="1" numLanes="1" speed="2.78" allow="pedestrian bicycle" oneway="1" width="2.00"/>
    <type id="highway.pedestrian" priority="1" numLanes="1" speed="2.78" allow="pedestrian" oneway="1" width="2.00"/>
    <type id="highway.primary" priority="12" numLanes="2" speed="27.78" disallow="tram rail_urban rail rail_electric rail_fast ship" oneway="0"/>
    <type id="highway.primary_link" priority="7" numLanes="1" speed="22.22" disallow="tram rail_urban rail rail_electric rail_fast ship" oneway="0"/>
    <type id="highway.raceway" priority="15" numLanes="2" speed="83.33" allow="vip" oneway="0"/>
    <type id="highway.residential" priority="3" numLanes="1" speed="13.89" disallow="tram rail_urban rail rail_electric rail_fast ship" oneway="0"/>
    <type id="highway.secondary" priority="11" numLanes="2" speed="27.78" disallow="tram rail_urban rail rail_electric rail_fast ship" oneway="0"/>
    <type id="highway.secondary_link" priority="6" numLanes="1" speed="22.22" disallow="tram rail_urban rail rail_electric rail_fast ship" oneway="0"/>
    <type id="highway.service" priority="1" numLanes="1" speed="5.56" allow="pedestrian delivery bicycle" oneway="0"/>
    <type id="highway.stairs" priority="1" numLanes="1" speed="1.39" allow="pedestrian" oneway="1" width="2.00"/>
    <type id="highway.step" priority="1" numLanes="1" speed="1.39" allow="pedestrian" oneway="1" width="2.00"/>
    <type id="highway.steps" priority="1" numLanes="1" speed="1.39" allow="pedestrian" oneway="1" width="2.00"/>
    <type id="highway.tertiary" priority="10" numLanes="1" speed="22.22" disallow="tram rail_urban rail rail_electric rail_fast ship" oneway="0"/>
    <type id="highway.tertiary_link" priority="5" numLanes="1" speed="22.22" disallow="tram rail_urban rail rail_electric rail_fast ship" oneway="0"/>
    <type id="highway.track" priority="1" numLanes="1" speed="5.56" disallow="tram rail_urban rail rail_electric rail_fast ship" oneway="0"/>
    <type id="highway.trunk" priority="13" numLanes="2" speed="27.78" disallow="pedestrian bicycle tram rail_urban rail rail_electric rail_fast ship" oneway="0"/>
    <type id="highway.trunk_link" priority="8" numLanes="1" speed="22.22" disallow="pedestrian bicycle tram rail_urban rail rail_electric rail_fast ship" oneway="0"/>
    <type id="highway.unclassified" priority="4" numLanes="1" speed="13.89" disallow="tram rail_urban rail rail_electric rail_fast ship" oneway="0"/>
    <type id="highway.unsurfaced" priority="1" numLanes="1" speed="8.33" disallow="tram rail_urban rail rail_electric rail_fast ship" oneway="0"/>
    <type id="railway.highspeed" priority="21" numLanes="1" speed="69.44" allow="rail_fast" oneway="1"/>
    <type id="railway.light_rail" priority="19" numLanes="1" speed="27.78" allow="rail_urban" oneway="1"/>
    <type id="railway.preserved" priority="16" numLanes="1" speed="27.78" allow="rail" oneway="1"/>
    <type id="railway.rail" priority="20" numLanes="1" speed="44.44" allow="rail" oneway="1"/>
    <type id="railway.subway" priority="18" numLanes="1" speed="27.78" allow="rail_urban" oneway="1"/>
    <type id="railway.tram" priority="17" numLanes="1" speed="13.89" allow="tram" oneway="1"/>

    <edge id=":1199539758_0" function="internal">
        <lane id=":1199539758_0_0" index="0" disallow="tram rail_urban rail rail_electric rail_fast ship" speed="4.08" length="5.84" width="4.00" shape="820.99,799.93 822.16,798.56 822.36,797.46 821.61,796.64 819.89,796.09"/>
    </edge>
    <edge id=":1199539763_0" function="internal">
        <lane id=":1199539763_0_0" index="0" disallow="tram rail_urban rail rail_electric rail_fast ship" speed="4.08" length="5.84" width="4.00" shape="591.09,805.37 589.98,806.79 589.82,807.90 590.61,808.69 592.35,809.17"/>
    </edge>
    <edge id=":1199539784_0" function="internal">
        <lane id=":1199539784_0_0" index="0" disallow="tram rail_urban rail rail_electric rail_fast ship" speed="6.52" length="9.76" width="4.00" shape="637.62,789.94 634.93,790.41 632.85,789.85 631.39,788.28 630.53,785.69"/>
    </edge>
    <edge id=":1199539784_1" function="internal">
        <lane id=":1199539784_1_0" index="0" disallow="tram rail_urban rail rail_electric rail_fast ship" speed="13.89" length="16.07" width="4.00" shape="637.62,789.94 622.36,794.97"/>
    </edge>
    <edge id=":1199539784_2" function="internal">
        <lane id=":1199539784_2_0" index="0" disallow="tram rail_urban rail rail_electric rail_fast ship" speed="13.89" length="16.05" width="4.00" shape="623.62,798.76 638.87,793.74"/>
    </edge>
    <edge id=":1199539784_3" function="internal">
        <lane id=":1199539784_3_0" index="0" disallow="tram rail_urban rail rail_electric rail_fast ship" speed="9.10" length="6.75" width="4.00" shape="623.62,798.76 627.32,796.86 629.00,794.89"/>
    </edge>
    <edge id=":1199539784_6" function="internal">
        <lane id=":1199539784_6_0" index="0" disallow="tram rail_urban rail rail_electric rail_fast ship" speed="9.10" length="9.61" width="4.00" shape="629.00,794.89 629.71,794.04 630.78,790.32 630.53,785.69"/>
    </edge>
    <edge id=":1199539784_4" function="internal">
        <lane id=":1199539784_4_0" index="0" disallow="tram rail_urban rail rail_electric rail_fast ship" speed="7.44" length="10.57" width="4.00" shape="626.59,786.40 626.78,789.47 626.14,791.92 624.66,793.75 622.36,794.97"/>
    </edge>
    <edge id=":1199539784_5" function="internal">
        <lane id=":1199539784_5_0" index="0" disallow="tram rail_urban rail rail_electric rail_fast ship" speed="8.34" length="16.89" width="4.00" shape="626.59,786.40 628.08,790.88 630.62,793.60 634.21,794.55 638.87,793.74"/>
    </edge>
    <edge id=":1199539821_0" function="internal">
        <lane id=":1199539821_0_0" index="0" disallow="tram rail_urban rail rail_electric rail_fast ship" speed="13.89" length="16.20" width="4.00" shape="754.08,744.43 752.25,728.33"/>
    </edge>
    <edge id=":1199539821_1" function="internal">
        <lane id=":1199539821_1_0" index="0" disallow="tram rail_urban rail rail_electric rail_fast ship" speed="8.29" length="7.28" width="4.00" shape="754.08,744.43 752.89,739.76 751.32,737.87"/>
    </edge>
    <edge id=":1199539821_6" function="internal">
        <lane id=":1199539821_6_0" index="0" disallow="tram rail_urban rail rail_electric rail_fast ship" speed="8.29" length="9.83" width="4.00" shape="751.32,737.87 750.51,736.88 746.94,735.78 742.17,736.45"/>
    </edge>
    <edge id=":1199539821_2" function="internal">
        <lane id=":1199539821_2_0" index="0" disallow="tram rail_urban rail rail_electric rail_fast ship" speed="6.46" length="9.79" width="4.00" shape="743.29,740.29 746.02,739.90 748.06,740.54 749.43,742.19 750.11,744.85"/>
    </edge>
    <edge id=":1199539821_3" function="internal">
        <lane id=":1199539821_3_0" index="0" disallow="tram rail_urban rail rail_electric rail_fast ship" speed="9.20" length="16.48" width="4.00" shape="743.29,740.29 747.62,738.44 750.56,735.83 752.10,732.46 752.25,728.33"/>
    </edge>
    <edge id=":1199539821_4" function="internal">
        <lane id=":1199539821_4_0" index="0" disallow="tram rail_urban rail rail_electric rail_fast ship" speed="7.57" length="10.78" width="4.00" shape="748.28,728.81 748.16,731.41 747.10,733.55 745.10,735.23 742.17,736.45"/>
    </edge>
    <edge id=":1199539821_5" function="internal">
        <lane id=":1199539821_5_0" index="0" disallow="tram rail_urban rail rail_electric rail_fast ship" speed="13.89" length="16.15" width="4.00" shape="748.28,728.81 750.11,744.85"/>
    </edge>
    <edge id=":1201719372_0" function="internal">
        <lane id=":1201719372_0_0" index="0" disallow="tram rail_urban rail rail_electric rail_fast ship" speed="4.08" length="5.84" width="4.00" shape="463.56,939.07 465.30,939.55 466.38,939.27 466.81,938.23 466.58,936.45"/>
    </edge>
    <edge id=":1201719386_0" function="internal">
        <lane id=":1201719386_0_0" index="0" disallow="tram rail_urban rail rail_electric rail_fast ship" speed="4.08" length="5.84" width="4.00" shape="862.66,832.18 863.96,833.44 865.04,833.72 865.91,833.02 866.58,831.34"/>
    </edge>
    <edge id=":1201719402_0" function="internal">
        <lane id=":1201719402_0_0" index="0" disallow="tram rail_urban rail rail_electric rail_fast ship" speed="4.08" length="5.84" width="4.00" shape="519.24,899.70 520.99,900.13 522.06,899.82 522.46,898.78 522.18,897.00"/>
    </edge>
    <edge id=":1201732596_0" function="internal">
        <lane id=":1201732596_0_0" index="0" disallow="tram rail_urban rail rail_electric rail_fast ship" speed="7.46" length="12.52" width="4.00" shape="173.13,1208.52 169.75,1209.27 167.49,1210.93 166.36,1213.48 166.35,1216.95"/>
    </edge>
    <edge id=":1201732596_1" function="internal">
        <lane id=":1201732596_1_0" index="0" disallow="tram rail_urban rail rail_electric rail_fast ship" speed="6.55" length="9.35" width="4.00" shape="173.13,1208.52 171.49,1209.12 170.48,1210.64 170.08,1213.06 170.31,1216.38"/>
    </edge>
    <edge id=":1201738180_0" function="internal">
        <lane id=":1201738180_0_0" index="0" disallow="tram rail_urban rail rail_electric rail_fast ship" speed="4.08" length="5.84" width="4.00" shape="99.80,1386.62 98.38,1387.73 97.96,1388.76 98.53,1389.72 100.10,1390.60"/>
    </edge>
    <edge id=":1249297139_0" function="internal">
        <lane id=":1249297139_0_0" index="0" disallow="tram rail_urban rail rail_electric rail_fast ship" speed="13.89" length="8.62" width="4.00" shape="2177.09,1059.24 2175.67,1061.26 2173.89,1062.07 2172.06,1062.86 2170.50,1064.82"/>
        <lane id=":1249297139_0_1" index="1" disallow="tram rail_urban rail rail_electric rail_fast ship" speed="13.89" length="8.62" width="4.00" shape="2177.09,1059.24 2174.16,1066.45"/>
        <lane id=":1249297139_0_2" index="2" disallow="tram rail_urban rail rail_electric rail_fast ship" speed="13.89" length="8.62" width="4.00" shape="2177.09,1059.24 2176.81,1061.80 2177.55,1063.69 2178.24,1065.57 2177.81,1068.07"/>
    </edge>
    <edge id=":1249567541_0" function="internal">
        <lane id=":1249567541_0_0" index="0" disallow="tram rail_urban rail rail_electric rail_fast ship" speed="13.89" length="10.47" width="4.00" shape="2108.54,1201.50 2108.60,1198.50 2109.30,1196.52 2110.50,1194.63 2112.04,1191.91"/>
    </edge>
    <edge id=":1249567541_1" function="internal">
        <lane id=":1249567541_1_0" index="0" disallow="tram rail_urban rail rail_electric rail_fast ship" speed="13.89" length="11.64" width="4.00" shape="2108.54,1201.50 2107.99,1198.06 2107.40,1195.63 2107.35,1193.29 2108.44,1190.16"/>
    </edge>
    <edge id=":1249567541_2" function="internal">
        <lane id=":1249567541_2_0" index="0" disallow="tram rail_urban rail rail_electric rail_fast ship" speed="10.45" length="11.48" width="4.00" shape="2108.54,1201.50 2107.96,1197.79 2106.85,1194.72 2105.23,1192.28 2103.07,1190.47"/>
        <lane id=":1249567541_2_1" index="1" disallow="tram rail_urban rail rail_electric rail_fast ship" speed="9.40" length="11.48" width="4.00" shape="2104.55,1201.82 2104.08,1199.02 2103.14,1196.64 2101.73,1194.70 2099.85,1193.19"/>
    </edge>
    <edge id=":1249567542_0" function="internal">
        <lane id=":1249567542_0_0" index="0" disallow="tram rail_urban rail rail_electric rail_fast ship" speed="12.61" length="11.26" width="4.00" shape="2091.11,1223.68 2092.81,1221.20 2093.96,1219.37 2095.42,1217.99 2098.05,1216.90"/>
        <lane id=":1249567542_0_1" index="1" disallow="tram rail_urban rail rail_electric rail_fast ship" speed="13.89" length="11.26" width="4.00" shape="2087.97,1221.20 2090.14,1218.16 2091.68,1215.98 2093.61,1214.37 2096.94,1213.06"/>
    </edge>
    <edge id=":1249567542_2" function="internal">
        <lane id=":1249567542_2_0" index="0" disallow="tram rail_urban rail rail_electric rail_fast ship" speed="11.11" length="11.31" width="4.00" shape="2086.32,1215.83 2088.92,1217.03 2091.74,1217.61 2094.78,1217.56 2098.05,1216.90"/>
        <lane id=":1249567542_2_1" index="1" disallow="tram rail_urban rail rail_electric rail_fast ship" speed="10.38" length="11.31" width="4.00" shape="2086.86,1211.49 2089.37,1212.72 2091.88,1213.40 2094.41,1213.51 2096.94,1213.06"/>
    </edge>
    <edge id=":1249567544_0" function="internal">
        <lane id=":1249567544_0_0" index="0" disallow="tram rail_urban rail rail_electric rail_fast ship" speed="8.89" length="5.90" width="4.00" shape="2078.86,1207.75 2079.02,1209.44 2078.81,1210.62 2078.23,1211.73 2077.30,1213.22"/>
    </edge>
    <edge id=":1249567544_1" function="internal">
        <lane id=":1249567544_1_0" index="0" disallow="tram rail_urban rail rail_electric rail_fast ship" speed="13.89" length="5.62" width="4.00" shape="2078.86,1207.75 2079.37,1209.53 2080.11,1210.59 2081.08,1211.57 2082.28,1213.07"/>
        <lane id=":1249567544_1_1" index="1" disallow="tram rail_urban rail rail_electric rail_fast ship" speed="7.07" length="5.62" width="4.00" shape="2082.80,1207.07 2083.12,1208.12 2083.70,1209.08 2084.55,1209.96 2085.66,1210.76"/>
    </edge>
    <edge id=":1249567564_0" function="internal">
        <lane id=":1249567564_0_0" index="0" disallow="tram rail_urban rail rail_electric rail_fast ship" speed="13.89" length="7.79" width="4.00" shape="2175.41,1100.62 2176.96,1098.84 2178.37,1097.89 2179.71,1096.90 2181.06,1094.99"/>
        <lane id=":1249567564_0_1" index="1" disallow="tram rail_urban rail rail_electric rail_fast ship" speed="13.89" length="7.79" width="4.00" shape="2175.41,1100.62 2176.39,1098.58 2176.59,1096.96 2176.73,1095.31 2177.51,1093.14"/>
        <lane id=":1249567564_0_2" index="2" disallow="tram rail_urban rail rail_electric rail_fast ship" speed="13.89" length="7.79" width="4.00" shape="2172.08,1098.40 2173.00,1096.46 2173.15,1094.93 2173.24,1093.35 2173.96,1091.30"/>
    </edge>
    <edge id=":1249567568_0" function="internal">
        <lane id=":1249567568_0_0" index="0" disallow="tram rail_urban rail rail_electric rail_fast ship" speed="13.89" length="7.63" width="4.00" shape="2204.50,984.85 2206.01,983.37 2207.40,982.74 2208.84,982.16 2210.53,980.84"/>
        <lane id=":1249567568_0_1" index="1" disallow="tram rail_urban rail rail_electric rail_fast ship" speed="13.89" length="7.63" width="4.00" shape="2204.50,984.85 2205.58,982.91 2205.95,981.35 2206.38,979.85 2207.64,978.07"/>
        <lane id=":1249567568_0_2" index="2" disallow="tram rail_urban rail rail_electric rail_fast ship" speed="13.89" length="7.63" width="4.00" shape="2201.31,982.44 2202.47,980.39 2202.90,978.76 2203.39,977.19 2204.75,975.31"/>
    </edge>
    <edge id=":1249570061_0" function="internal">
        <lane id=":1249570061_0_0" index="0" disallow="tram rail_urban rail rail_electric rail_fast ship" speed="13.89" length="9.43" width="4.00" shape="1968.30,1339.63 1965.97,1341.18 1964.38,1342.27 1962.75,1343.26 1960.27,1344.56"/>
    </edge>
    <edge id=":1249570061_1" function="internal">
        <lane id=":1249570061_1_0" index="0" disallow="tram rail_urban rail rail_electric rail_fast ship" speed="8.47" length="9.68" width="4.00" shape="1969.47,1344.84 1967.36,1343.76 1965.13,1343.36 1962.76,1343.62 1960.27,1344.56"/>
    </edge>
    <edge id=":1345078953_0" function="internal">
        <lane id=":1345078953_0_0" index="0" disallow="pedestrian bicycle tram rail_urban rail rail_electric rail_fast ship" speed="12.85" length="9.68" width="4.00" shape="284.91,757.09 286.56,754.71 287.68,752.95 289.09,751.62 291.62,750.51"/>
    </edge>
    <edge id=":1345078953_1" function="internal">
        <lane id=":1345078953_1_0" index="0" disallow="pedestrian bicycle tram rail_urban rail rail_electric rail_fast ship" speed="22.22" length="11.79" width="4.00" shape="281.92,753.83 284.46,751.66 285.92,749.75 287.50,748.09 290.41,746.70"/>
        <lane id=":1345078953_1_1" index="1" disallow="pedestrian bicycle tram rail_urban rail rail_electric rail_fast ship" speed="22.22" length="11.79" width="4.00" shape="279.72,750.49 282.53,748.15 284.19,746.12 285.99,744.38 289.20,742.88"/>
    </edge>
    <edge id=":1345078970_0" function="internal">
        <lane id=":1345078970_0_0" index="0" disallow="pedestrian bicycle tram rail_urban rail rail_electric rail_fast ship" speed="22.22" length="8.30" width="4.00" shape="384.37,711.95 386.51,710.84 387.76,709.66 389.02,708.50 391.17,707.43"/>
        <lane id=":1345078970_0_1" index="1" disallow="pedestrian bicycle tram rail_urban rail rail_electric rail_fast ship" speed="22.22" length="8.30" width="4.00" shape="383.00,708.20 385.36,707.67 387.08,707.79 388.80,707.91 391.17,707.43"/>
        <lane id=":1345078970_0_2" index="2" disallow="pedestrian bicycle tram rail_urban rail rail_electric rail_fast ship" speed="22.22" length="8.30" width="4.00" shape="381.63,704.44 384.01,703.90 385.74,704.01 387.48,704.14 389.88,703.65"/>
    </edge>
    <edge id=":1345078977_0" function="internal">
        <lane id=":1345078977_0_0" index="0" disallow="pedestrian bicycle tram rail_urban rail rail_electric rail_fast ship" speed="20.83" length="7.98" width="4.00" shape="606.09,631.06 613.63,628.46"/>
        <lane id=":1345078977_0_1" index="1" disallow="pedestrian bicycle tram rail_urban rail rail_electric rail_fast ship" speed="20.83" length="7.98" width="4.00" shape="604.86,627.25 612.42,624.65"/>
    </edge>
    <edge id=":1345078977_2" function="internal">
        <lane id=":1345078977_2_0" index="0" disallow="pedestrian bicycle tram rail_urban rail rail_electric rail_fast ship" speed="19.44" length="8.33" width="4.00" shape="604.19,625.18 606.39,624.14 607.70,623.00 609.00,621.87 611.20,620.84"/>
        <lane id=":1345078977_2_1" index="1" disallow="pedestrian bicycle tram rail_urban rail rail_electric rail_fast ship" speed="19.44" length="8.33" width="4.00" shape="602.97,621.37 605.17,620.33 606.48,619.19 607.79,618.06 609.99,617.03"/>
    </edge>
    <edge id=":1345078981_0" function="internal">
        <lane id=":1345078981_0_0" index="0" disallow="tram rail_urban rail rail_electric rail_fast ship" speed="15.28" length="20.70" width="4.00" shape="205.04,714.60 200.59,710.23 197.04,707.28 194.70,703.89 193.88,698.21"/>
    </edge>
    <edge id=":1345078981_1" function="internal">
        <lane id=":1345078981_1_0" index="0" disallow="tram rail_urban rail rail_electric rail_fast ship" speed="15.28" length="22.46" width="4.00" shape="205.04,714.60 199.76,710.22 194.86,707.80 191.25,705.03 189.87,699.62"/>
    </edge>
    <edge id=":1345078981_2" function="internal">
        <lane id=":1345078981_2_0" index="0" disallow="tram rail_urban rail rail_electric rail_fast ship" speed="16.67" length="21.74" width="4.00" shape="201.98,717.17 196.88,712.06 192.22,708.59 188.27,705.96 185.29,703.35"/>
    </edge>
    <edge id=":1345079001_0" function="internal">
        <lane id=":1345079001_0_0" index="0" disallow="tram rail_urban rail rail_electric rail_fast ship" speed="27.78" length="22.22" width="4.00" shape="212.43,642.46 193.31,653.72"/>
        <lane id=":1345079001_0_1" index="1" disallow="tram rail_urban rail rail_electric rail_fast ship" speed="27.78" length="22.22" width="4.00" shape="214.54,645.86 195.37,657.15"/>
    </edge>
    <edge id=":1345079001_2" function="internal">
        <lane id=":1345079001_2_0" index="0" disallow="tram rail_urban rail rail_electric rail_fast ship" speed="20.84" length="21.76" width="4.00" shape="203.58,667.32 207.57,662.62 210.48,659.17 213.74,656.12 218.76,652.65"/>
        <lane id=":1345079001_2_1" index="1" disallow="tram rail_urban rail rail_electric rail_fast ship" speed="20.84" length="21.76" width="4.00" shape="200.66,664.58 204.78,659.78 207.97,656.10 211.51,652.83 216.65,649.25"/>
    </edge>
    <edge id=":1345079001_4" function="internal">
        <lane id=":1345079001_4_0" index="0" disallow="tram rail_urban rail rail_electric rail_fast ship" speed="5.70" length="12.65" width="4.00" shape="200.66,664.58 201.87,661.46 200.91,658.47 198.50,656.68 195.37,657.15"/>
    </edge>
    <edge id=":1345079001_5" function="internal">
        <lane id=":1345079001_5_0" index="0" disallow="tram rail_urban rail rail_electric rail_fast ship" speed="27.78" length="22.31" width="4.00" shape="197.43,660.59 216.65,649.25"/>
    </edge>
    <edge id=":1345079015_0" function="internal">
        <lane id=":1345079015_0_0" index="0" disallow="pedestrian bicycle tram rail_urban rail rail_electric rail_fast ship" speed="22.22" length="8.24" width="4.00" shape="292.69,701.30 290.35,702.10 288.59,702.22 286.85,702.37 284.56,703.27"/>
        <lane id=":1345079015_0_1" index="1" disallow="pedestrian bicycle tram rail_urban rail rail_electric rail_fast ship" speed="22.22" length="8.24" width="4.00" shape="292.69,701.30 290.67,702.65 289.56,703.98 288.47,705.34 286.49,706.78"/>
        <lane id=":1345079015_0_2" index="2" disallow="pedestrian bicycle tram rail_urban rail rail_electric rail_fast ship" speed="22.22" length="8.24" width="4.00" shape="294.45,704.90 292.48,706.21 291.40,707.53 290.34,708.87 288.42,710.28"/>
        <lane id=":1345079015_0_3" index="3" disallow="pedestrian bicycle tram rail_urban rail rail_electric rail_fast ship" speed="22.22" length="8.24" width="4.00" shape="296.21,708.49 294.28,709.78 293.25,711.08 292.22,712.40 290.34,713.79"/>
    </edge>
    <edge id=":1345086710_0" function="internal">
        <lane id=":1345086710_0_0" index="0" disallow="tram rail_urban rail rail_electric rail_fast ship" speed="16.67" length="8.32" width="4.00" shape="349.36,824.92 347.05,825.66 345.32,825.71 343.59,825.76 341.28,826.49"/>
        <lane id=":1345086710_0_1" index="1" disallow="tram rail_urban rail rail_electric rail_fast ship" speed="16.67" length="8.32" width="4.00" shape="349.36,824.92 347.31,826.23 346.16,827.52 345.01,828.82 342.96,830.12"/>
        <lane id=":1345086710_0_2" index="2" disallow="tram rail_urban rail rail_electric rail_fast ship" speed="16.67" length="8.32" width="4.00" shape="351.06,828.54 349.01,829.85 347.86,831.15 346.70,832.44 344.65,833.74"/>
    </edge>
    <edge id=":1345103809_0" function="internal">
        <lane id=":1345103809_0_0" index="0" disallow="tram rail_urban rail rail_electric rail_fast ship" speed="13.89" length="13.21" width="4.00" shape="740.26,1817.07 736.84,1817.65 733.77,1818.30 730.73,1819.05 727.37,1819.94"/>
    </edge>
    <edge id=":1345103809_1" function="internal">
        <lane id=":1345103809_1_0" index="0" disallow="tram rail_urban rail rail_electric rail_fast ship" speed="5.90" length="4.81" width="4.00" shape="732.03,1825.30 732.93,1822.17 732.56,1820.66"/>
    </edge>
    <edge id=":1345103809_2" function="internal">
        <lane id=":1345103809_2_0" index="0" disallow="tram rail_urban rail rail_electric rail_fast ship" speed="5.90" length="5.70" width="4.00" shape="732.56,1820.66 732.45,1820.23 730.60,1819.49 727.37,1819.94"/>
    </edge>
    <edge id=":1345143345_0" function="internal">
        <lane id=":1345143345_0_0" index="0" disallow="tram rail_urban rail rail_electric rail_fast ship" speed="13.89" length="8.26" width="4.00" shape="803.26,1366.52 804.91,1368.29 806.39,1369.16 807.90,1370.01 809.61,1371.73"/>
        <lane id=":1345143345_0_1" index="1" disallow="tram rail_urban rail rail_electric rail_fast ship" speed="13.89" length="8.26" width="4.00" shape="806.52,1364.20 807.65,1366.32 808.02,1368.00 808.41,1369.66 809.61,1371.73"/>
    </edge>
    <edge id=":1358272512_0" function="internal">
        <lane id=":1358272512_0_0" index="0" disallow="tram rail_urban rail rail_electric rail_fast ship" speed="9.00" length="16.43" width="4.00" shape="1039.80,1616.85 1035.11,1619.69 1031.07,1620.96 1027.68,1620.66 1024.95,1618.79"/>
    </edge>
    <edge id=":1358272512_1" function="internal">
        <lane id=":1358272512_1_0" index="0" disallow="tram rail_urban rail rail_electric rail_fast ship" speed="13.89" length="19.87" width="4.00" shape="1039.80,1616.85 1034.95,1619.72 1031.24,1621.06 1027.58,1622.48 1022.91,1625.58"/>
        <lane id=":1358272512_1_1" index="1" disallow="tram rail_urban rail rail_electric rail_fast ship" speed="13.89" length="19.87" width="4.00" shape="1042.14,1620.10 1036.98,1623.19 1032.95,1624.77 1028.99,1626.44 1024.03,1629.80"/>
    </edge>
    <edge id=":1358272512_3" function="internal">
        <lane id=":1358272512_3_0" index="0" disallow="tram rail_urban rail rail_electric rail_fast ship" speed="13.89" length="20.29" width="4.00" shape="1043.16,1627.52 1037.05,1624.71 1031.99,1622.79 1027.97,1621.06 1024.95,1618.79"/>
    </edge>
    <edge id=":1358272512_4" function="internal">
        <lane id=":1358272512_4_0" index="0" disallow="tram rail_urban rail rail_electric rail_fast ship" speed="11.66" length="20.69" width="4.00" shape="1043.16,1627.52 1036.75,1624.69 1031.24,1623.42 1026.63,1623.72 1022.91,1625.58"/>
        <lane id=":1358272512_4_1" index="1" disallow="tram rail_urban rail rail_electric rail_fast ship" speed="9.58" length="20.69" width="4.00" shape="1041.58,1631.56 1037.39,1627.94 1033.07,1626.44 1028.62,1627.06 1024.03,1629.80"/>
    </edge>
    <edge id=":1358272531_0" function="internal">
        <lane id=":1358272531_0_0" index="0" disallow="tram rail_urban rail rail_electric rail_fast ship" speed="13.89" length="10.00" width="4.00" shape="1050.50,1644.72 1050.31,1641.75 1049.90,1639.67 1049.80,1637.66 1050.52,1634.87"/>
    </edge>
    <edge id=":1358272531_1" function="internal">
        <lane id=":1358272531_1_0" index="0" disallow="tram rail_urban rail rail_electric rail_fast ship" speed="13.89" length="15.63" width="4.00" shape="1050.50,1644.72 1050.48,1639.76 1049.84,1636.31 1048.17,1633.24 1045.02,1629.42"/>
        <lane id=":1358272531_1_1" index="1" disallow="tram rail_urban rail rail_electric rail_fast ship" speed="13.00" length="15.63" width="4.00" shape="1046.51,1644.63 1046.46,1640.43 1045.87,1637.53 1044.40,1634.94 1041.71,1631.71"/>
    </edge>
    <edge id=":1358272552_0" function="internal">
        <lane id=":1358272552_0_0" index="0" disallow="tram rail_urban rail rail_electric rail_fast ship" speed="8.79" length="6.04" width="4.00" shape="1021.03,1659.11 1022.19,1660.40 1022.71,1661.51 1022.88,1662.78 1023.00,1664.57"/>
    </edge>
    <edge id=":1358272552_1" function="internal">
        <lane id=":1358272552_1_0" index="0" disallow="tram rail_urban rail rail_electric rail_fast ship" speed="13.89" length="5.79" width="4.00" shape="1021.03,1659.11 1022.52,1660.27 1023.76,1660.74 1025.12,1661.01 1026.99,1661.57"/>
        <lane id=":1358272552_1_1" index="1" disallow="tram rail_urban rail rail_electric rail_fast ship" speed="13.89" length="5.79" width="4.00" shape="1023.79,1656.21 1024.94,1657.06 1025.92,1657.33 1026.99,1657.45 1028.43,1657.84"/>
    </edge>
    <edge id=":1358272554_0" function="internal">
        <lane id=":1358272554_0_0" index="0" disallow="tram rail_urban rail rail_electric rail_fast ship" speed="12.40" length="10.84" width="4.00" shape="1037.59,1668.38 1038.09,1665.33 1038.76,1663.17 1040.02,1661.26 1042.25,1658.95"/>
    </edge>
    <edge id=":1358272554_1" function="internal">
        <lane id=":1358272554_1_0" index="0" disallow="tram rail_urban rail rail_electric rail_fast ship" speed="11.60" length="10.84" width="4.00" shape="1031.55,1661.96 1035.00,1662.01 1037.47,1661.88 1039.66,1661.03 1042.25,1658.95"/>