<?xml version="1.0" encoding="UTF-8"?>

<!-- generated on Wed 31 Jul 2019 11:12:04 AM by Eclipse SUMO netedit Version v1_2_0+1287-e3a0083b72
<configuration xmlns:xsi="http://www.w3.org/2001/XMLSchema-instance" xsi:noNamespaceSchemaLocation="http://sumo.dlr.de/xsd/netconvertConfiguration.xsd">

    <input>
        <sumo-net-file value="/home/leeyiyuan/carla/Data/map.net.xml"/>
    </input>

    <output>
        <output-file value="/home/leeyiyuan/carla/Data/map.net.xml"/>
    </output>

    <processing>
        <geometry.max-grade.fix value="false"/>
        <offset.disable-normalization value="true"/>
        <lefthand value="true"/>
    </processing>

    <junctions>
        <no-turnarounds value="true"/>
        <junctions.corner-detail value="5"/>
        <junctions.limit-turn-speed value="5.5"/>
        <rectangular-lane-cut value="false"/>
    </junctions>

    <pedestrian>
        <walkingareas value="false"/>
    </pedestrian>

</configuration>
-->

<net version="1.3" junctionCornerDetail="5" lefthand="true" limitTurnSpeed="5.50" xmlns:xsi="http://www.w3.org/2001/XMLSchema-instance" xsi:noNamespaceSchemaLocation="http://sumo.dlr.de/xsd/net_file.xsd">

    <location netOffset="-362634.88,-142028.22" convBoundary="0.00,0.00,2433.45,2756.24" origBoundary="103.675226,1.265289,103.839792,1.348183" projParameter="+proj=utm +zone=48 +ellps=WGS84 +datum=WGS84 +units=m +no_defs"/>

    <type id="highway.bridleway" priority="1" numLanes="1" speed="2.78" allow="pedestrian" oneway="1" width="2.00"/>
    <type id="highway.bus_guideway" priority="1" numLanes="1" speed="27.78" allow="bus" oneway="1"/>
    <type id="highway.cycleway" priority="1" numLanes="1" speed="8.33" allow="bicycle" oneway="0" width="1.00"/>
    <type id="highway.footway" priority="1" numLanes="1" speed="2.78" allow="pedestrian" oneway="1" width="2.00"/>
    <type id="highway.ford" priority="1" numLanes="1" speed="2.78" allow="army" oneway="0"/>
    <type id="highway.living_street" priority="2" numLanes="1" speed="2.78" disallow="tram rail_urban rail rail_electric rail_fast ship" oneway="0"/>
    <type id="highway.motorway" priority="14" numLanes="2" speed="39.44" allow="private emergency authority army vip passenger hov taxi bus coach delivery truck trailer motorcycle evehicle custom1 custom2" oneway="1"/>
    <type id="highway.motorway_link" priority="9" numLanes="1" speed="22.22" allow="private emergency authority army vip passenger hov taxi bus coach delivery truck trailer motorcycle evehicle custom1 custom2" oneway="1"/>
    <type id="highway.path" priority="1" numLanes="1" speed="2.78" allow="pedestrian bicycle" oneway="1" width="2.00"/>
    <type id="highway.pedestrian" priority="1" numLanes="1" speed="2.78" allow="pedestrian" oneway="1" width="2.00"/>
    <type id="highway.primary" priority="12" numLanes="2" speed="27.78" disallow="tram rail_urban rail rail_electric rail_fast ship" oneway="0"/>
    <type id="highway.primary_link" priority="7" numLanes="1" speed="22.22" disallow="tram rail_urban rail rail_electric rail_fast ship" oneway="0"/>
    <type id="highway.raceway" priority="15" numLanes="2" speed="83.33" allow="vip" oneway="0"/>
    <type id="highway.residential" priority="3" numLanes="1" speed="13.89" disallow="tram rail_urban rail rail_electric rail_fast ship" oneway="0"/>
    <type id="highway.secondary" priority="11" numLanes="2" speed="27.78" disallow="tram rail_urban rail rail_electric rail_fast ship" oneway="0"/>
    <type id="highway.secondary_link" priority="6" numLanes="1" speed="22.22" disallow="tram rail_urban rail rail_electric rail_fast ship" oneway="0"/>
    <type id="highway.service" priority="1" numLanes="1" speed="5.56" allow="pedestrian delivery bicycle" oneway="0"/>
    <type id="highway.stairs" priority="1" numLanes="1" speed="1.39" allow="pedestrian" oneway="1" width="2.00"/>
    <type id="highway.step" priority="1" numLanes="1" speed="1.39" allow="pedestrian" oneway="1" width="2.00"/>
    <type id="highway.steps" priority="1" numLanes="1" speed="1.39" allow="pedestrian" oneway="1" width="2.00"/>
    <type id="highway.tertiary" priority="10" numLanes="1" speed="22.22" disallow="tram rail_urban rail rail_electric rail_fast ship" oneway="0"/>
    <type id="highway.tertiary_link" priority="5" numLanes="1" speed="22.22" disallow="tram rail_urban rail rail_electric rail_fast ship" oneway="0"/>
    <type id="highway.track" priority="1" numLanes="1" speed="5.56" disallow="tram rail_urban rail rail_electric rail_fast ship" oneway="0"/>
    <type id="highway.trunk" priority="13" numLanes="2" speed="27.78" disallow="pedestrian bicycle tram rail_urban rail rail_electric rail_fast ship" oneway="0"/>
    <type id="highway.trunk_link" priority="8" numLanes="1" speed="22.22" disallow="pedestrian bicycle tram rail_urban rail rail_electric rail_fast ship" oneway="0"/>
    <type id="highway.unclassified" priority="4" numLanes="1" speed="13.89" disallow="tram rail_urban rail rail_electric rail_fast ship" oneway="0"/>
    <type id="highway.unsurfaced" priority="1" numLanes="1" speed="8.33" disallow="tram rail_urban rail rail_electric rail_fast ship" oneway="0"/>
    <type id="railway.highspeed" priority="21" numLanes="1" speed="69.44" allow="rail_fast" oneway="1"/>
    <type id="railway.light_rail" priority="19" numLanes="1" speed="27.78" allow="rail_urban" oneway="1"/>
    <type id="railway.preserved" priority="16" numLanes="1" speed="27.78" allow="rail" oneway="1"/>
    <type id="railway.rail" priority="20" numLanes="1" speed="44.44" allow="rail" oneway="1"/>
    <type id="railway.subway" priority="18" numLanes="1" speed="27.78" allow="rail_urban" oneway="1"/>
    <type id="railway.tram" priority="17" numLanes="1" speed="13.89" allow="tram" oneway="1"/>

    <edge id=":1199539758_0" function="internal">
        <lane id=":1199539758_0_0" index="0" disallow="tram rail_urban rail rail_electric rail_fast ship" speed="3.65" length="4.67" shape="820.38,794.64 821.31,793.54 821.48,792.66 820.88,792.00 819.50,791.56"/>
    </edge>
    <edge id=":1199539763_0" function="internal">
        <lane id=":1199539763_0_0" index="0" disallow="tram rail_urban rail rail_electric rail_fast ship" speed="3.65" length="4.67" shape="590.82,800.89 589.93,802.03 589.80,802.91 590.43,803.55 591.82,803.93"/>
    </edge>
    <edge id=":1199539784_0" function="internal">
        <lane id=":1199539784_0_0" index="0" disallow="tram rail_urban rail rail_electric rail_fast ship" speed="6.23" length="9.05" shape="636.45,785.83 633.96,786.26 632.03,785.75 630.66,784.29 629.86,781.89"/>
    </edge>
    <edge id=":1199539784_1" function="internal">
        <lane id=":1199539784_1_0" index="0" disallow="tram rail_urban rail rail_electric rail_fast ship" speed="13.89" length="14.45" shape="636.45,785.83 622.71,790.33"/>
    </edge>
    <edge id=":1199539784_2" function="internal">
        <lane id=":1199539784_2_0" index="0" disallow="tram rail_urban rail rail_electric rail_fast ship" speed="13.89" length="14.44" shape="623.72,793.37 637.44,788.87"/>
    </edge>
    <edge id=":1199539784_3" function="internal">
        <lane id=":1199539784_3_0" index="0" disallow="tram rail_urban rail rail_electric rail_fast ship" speed="8.50" length="5.68" shape="623.72,793.37 627.01,791.69 628.30,790.18"/>
    </edge>
    <edge id=":1199539784_6" function="internal">
        <lane id=":1199539784_6_0" index="0" disallow="tram rail_urban rail rail_electric rail_fast ship" speed="8.50" length="8.74" shape="628.30,790.18 629.13,789.22 630.08,785.95 629.86,781.89"/>
    </edge>
    <edge id=":1199539784_4" function="internal">
        <lane id=":1199539784_4_0" index="0" disallow="tram rail_urban rail rail_electric rail_fast ship" speed="7.10" length="9.77" shape="626.71,782.46 626.88,785.27 626.27,787.52 624.88,789.20 622.71,790.33"/>
    </edge>
    <edge id=":1199539784_5" function="internal">
        <lane id=":1199539784_5_0" index="0" disallow="tram rail_urban rail rail_electric rail_fast ship" speed="7.78" length="14.74" shape="626.71,782.46 628.02,786.37 630.24,788.74 633.38,789.57 637.44,788.87"/>
    </edge>
    <edge id=":1199539821_0" function="internal">
        <lane id=":1199539821_0_0" index="0" disallow="tram rail_urban rail rail_electric rail_fast ship" speed="13.89" length="14.56" shape="753.09,739.08 751.43,724.61"/>
    </edge>
    <edge id=":1199539821_1" function="internal">
        <lane id=":1199539821_1_0" index="0" disallow="tram rail_urban rail rail_electric rail_fast ship" speed="7.72" length="6.08" shape="753.09,739.08 752.05,735.02 750.85,733.56"/>
    </edge>
    <edge id=":1199539821_6" function="internal">
        <lane id=":1199539821_6_0" index="0" disallow="tram rail_urban rail rail_electric rail_fast ship" speed="7.72" length="8.82" shape="750.85,733.56 749.97,732.51 746.86,731.54 742.71,732.12"/>
    </edge>
    <edge id=":1199539821_2" function="internal">
        <lane id=":1199539821_2_0" index="0" disallow="tram rail_urban rail rail_electric rail_fast ship" speed="6.16" length="9.05" shape="743.60,735.20 746.12,734.84 748.02,735.43 749.28,736.96 749.91,739.42"/>
    </edge>
    <edge id=":1199539821_3" function="internal">
        <lane id=":1199539821_3_0" index="0" disallow="tram rail_urban rail rail_electric rail_fast ship" speed="8.60" length="14.53" shape="743.60,735.20 747.40,733.58 749.96,731.27 751.31,728.28 751.43,724.61"/>
    </edge>
    <edge id=":1199539821_4" function="internal">
        <lane id=":1199539821_4_0" index="0" disallow="tram rail_urban rail rail_electric rail_fast ship" speed="7.21" length="9.95" shape="748.25,725.00 748.15,727.44 747.19,729.44 745.38,731.00 742.71,732.12"/>
    </edge>
    <edge id=":1199539821_5" function="internal">
        <lane id=":1199539821_5_0" index="0" disallow="tram rail_urban rail rail_electric rail_fast ship" speed="13.89" length="14.52" shape="748.25,725.00 749.91,739.42"/>
    </edge>
    <edge id=":1201719372_0" function="internal">
        <lane id=":1201719372_0_0" index="0" disallow="tram rail_urban rail rail_electric rail_fast ship" speed="3.65" length="4.67" shape="463.59,933.10 464.98,933.47 465.85,933.24 466.18,932.41 465.99,930.98"/>
    </edge>
    <edge id=":1201719386_0" function="internal">
        <lane id=":1201719386_0_0" index="0" disallow="tram rail_urban rail rail_electric rail_fast ship" speed="3.65" length="4.67" shape="862.56,826.93 863.59,827.93 864.46,828.15 865.16,827.59 865.68,826.25"/>
    </edge>
    <edge id=":1201719402_0" function="internal">
        <lane id=":1201719402_0_0" index="0" disallow="tram rail_urban rail rail_electric rail_fast ship" speed="3.65" length="4.67" shape="519.20,893.97 520.61,894.30 521.47,894.06 521.78,893.22 521.56,891.79"/>
    </edge>
    <edge id=":1201732596_0" function="internal">
        <lane id=":1201732596_0_0" index="0" disallow="tram rail_urban rail rail_electric rail_fast ship" speed="6.81" length="10.50" shape="172.29,1201.47 169.45,1202.09 167.56,1203.48 166.62,1205.62 166.61,1208.53"/>
    </edge>
    <edge id=":1201732596_1" function="internal">
        <lane id=":1201732596_1_0" index="0" disallow="tram rail_urban rail rail_electric rail_fast ship" speed="6.01" length="7.95" shape="172.29,1201.47 170.85,1201.98 169.95,1203.25 169.60,1205.28 169.78,1208.08"/>
    </edge>
    <edge id=":1201738180_0" function="internal">
        <lane id=":1201738180_0_0" index="0" disallow="tram rail_urban rail rail_electric rail_fast ship" speed="3.65" length="4.67" shape="99.92,1378.26 98.78,1379.15 98.44,1379.98 98.91,1380.75 100.16,1381.46"/>
    </edge>
    <edge id=":1249297139_0" function="internal">
        <lane id=":1249297139_0_0" index="0" disallow="tram rail_urban rail rail_electric rail_fast ship" speed="13.89" length="8.33" shape="2176.14,1051.80 2174.86,1053.83 2173.31,1054.79 2171.71,1055.72 2170.28,1057.70"/>
        <lane id=":1249297139_0_1" index="1" disallow="tram rail_urban rail rail_electric rail_fast ship" speed="13.89" length="8.33" shape="2176.14,1051.80 2173.20,1059.00"/>
        <lane id=":1249297139_0_2" index="2" disallow="tram rail_urban rail rail_electric rail_fast ship" speed="13.89" length="8.33" shape="2176.14,1051.80 2175.76,1054.27 2176.23,1056.09 2176.65,1057.90 2176.12,1060.31"/>
    </edge>
    <edge id=":1249567541_0" function="internal">
        <lane id=":1249567541_0_0" index="0" disallow="tram rail_urban rail rail_electric rail_fast ship" speed="13.82" length="9.19" shape="2107.27,1192.95 2107.32,1190.31 2107.91,1188.56 2108.94,1186.90 2110.29,1184.50"/>
    </edge>
    <edge id=":1249567541_1" function="internal">
        <lane id=":1249567541_1_0" index="0" disallow="tram rail_urban rail rail_electric rail_fast ship" speed="13.89" length="10.10" shape="2107.27,1192.95 2106.83,1189.96 2106.39,1187.84 2106.43,1185.82 2107.42,1183.10"/>
    </edge>
    <edge id=":1249567541_2" function="internal">
        <lane id=":1249567541_2_0" index="0" disallow="tram rail_urban rail rail_electric rail_fast ship" speed="12.86" length="10.38" shape="2107.27,1192.95 2106.89,1189.78 2106.20,1187.66 2104.93,1185.77 2102.84,1183.32"/>
        <lane id=":1249567541_2_1" index="1" disallow="tram rail_urban rail rail_electric rail_fast ship" speed="9.17" length="10.38" shape="2104.08,1193.20 2103.63,1190.44 2102.74,1188.12 2101.42,1186.25 2099.67,1184.81"/>
    </edge>
    <edge id=":1249567542_0" function="internal">
        <lane id=":1249567542_0_0" index="0" disallow="tram rail_urban rail rail_electric rail_fast ship" speed="11.83" length="9.81" shape="2090.67,1214.00 2092.18,1211.83 2093.22,1210.24 2094.53,1209.05 2096.85,1208.10"/>
        <lane id=":1249567542_0_1" index="1" disallow="tram rail_urban rail rail_electric rail_fast ship" speed="13.05" length="9.81" shape="2088.17,1212.01 2090.05,1209.39 2091.40,1207.52 2093.08,1206.15 2095.96,1205.02"/>
    </edge>
    <edge id=":1249567542_2" function="internal">
        <lane id=":1249567542_2_0" index="0" disallow="tram rail_urban rail rail_electric rail_fast ship" speed="10.35" length="9.81" shape="2086.68,1207.62 2088.75,1208.51 2091.14,1208.89 2093.84,1208.75 2096.85,1208.10"/>
        <lane id=":1249567542_2_1" index="1" disallow="tram rail_urban rail rail_electric rail_fast ship" speed="9.71" length="9.81" shape="2087.11,1204.14 2089.11,1205.07 2091.25,1205.52 2093.54,1205.51 2095.96,1205.02"/>
    </edge>
    <edge id=":1249567544_0" function="internal">
        <lane id=":1249567544_0_0" index="0" disallow="tram rail_urban rail rail_electric rail_fast ship" speed="8.35" length="5.29" shape="2078.36,1198.93 2078.51,1200.45 2078.34,1201.51 2077.83,1202.51 2077.01,1203.85"/>
    </edge>
    <edge id=":1249567544_1" function="internal">
        <lane id=":1249567544_1_0" index="0" disallow="tram rail_urban rail rail_electric rail_fast ship" speed="13.89" length="5.07" shape="2078.36,1198.93 2078.80,1200.52 2079.43,1201.49 2080.26,1202.38 2081.32,1203.72"/>
        <lane id=":1249567544_1_1" index="1" disallow="tram rail_urban rail rail_electric rail_fast ship" speed="12.42" length="5.07" shape="2081.51,1198.38 2081.88,1199.58 2082.42,1200.28 2083.13,1200.92 2083.97,1201.93"/>
    </edge>
    <edge id=":1249567564_0" function="internal">
        <lane id=":1249567564_0_0" index="0" disallow="tram rail_urban rail rail_electric rail_fast ship" speed="13.89" length="7.67" shape="2174.12,1092.73 2175.61,1090.94 2176.91,1089.92 2178.13,1088.86 2179.42,1086.95"/>
        <lane id=":1249567564_0_1" index="1" disallow="tram rail_urban rail rail_electric rail_fast ship" speed="13.89" length="7.67" shape="2174.12,1092.73 2175.16,1090.72 2175.49,1089.17 2175.75,1087.58 2176.58,1085.46"/>
        <lane id=":1249567564_0_2" index="2" disallow="tram rail_urban rail rail_electric rail_fast ship" speed="13.89" length="7.67" shape="2171.46,1090.94 2172.44,1089.03 2172.73,1087.54 2172.96,1086.01 2173.75,1083.98"/>
    </edge>
    <edge id=":1249567568_0" function="internal">
        <lane id=":1249567568_0_0" index="0" disallow="tram rail_urban rail rail_electric rail_fast ship" speed="13.89" length="7.49" shape="2203.17,977.73 2204.64,976.21 2205.93,975.48 2207.29,974.80 2208.94,973.44"/>
        <lane id=":1249567568_0_1" index="1" disallow="tram rail_urban rail rail_electric rail_fast ship" speed="13.89" length="7.49" shape="2203.17,977.73 2204.29,975.84 2204.78,974.37 2205.33,972.94 2206.63,971.22"/>
        <lane id=":1249567568_0_2" index="2" disallow="tram rail_urban rail rail_electric rail_fast ship" speed="13.89" length="7.49" shape="2200.62,975.79 2201.81,973.82 2202.34,972.29 2202.94,970.81 2204.32,969.00"/>
    </edge>
    <edge id=":1249570061_0" function="internal">
        <lane id=":1249570061_0_0" index="0" disallow="tram rail_urban rail rail_electric rail_fast ship" speed="13.89" length="8.54" shape="1966.91,1330.74 1964.80,1332.15 1963.36,1333.12 1961.87,1334.02 1959.62,1335.18"/>
    </edge>
    <edge id=":1249570061_1" function="internal">
        <lane id=":1249570061_1_0" index="0" disallow="tram rail_urban rail rail_electric rail_fast ship" speed="9.58" length="8.52" shape="1967.93,1335.10 1965.63,1334.47 1963.49,1334.28 1961.48,1334.52 1959.62,1335.18"/>
    </edge>
    <edge id=":1345078953_0" function="internal">
        <lane id=":1345078953_0_0" index="0" disallow="pedestrian bicycle tram rail_urban rail rail_electric rail_fast ship" speed="10.71" length="9.00" shape="281.64,753.44 282.84,751.02 283.66,749.23 284.84,747.87 287.11,746.75"/>
    </edge>
    <edge id=":1345078953_1" function="internal">
        <lane id=":1345078953_1_0" index="0" disallow="pedestrian bicycle tram rail_urban rail rail_electric rail_fast ship" speed="22.22" length="10.67" shape="278.88,750.82 281.11,748.78 282.27,746.86 283.52,745.15 286.07,743.73"/>
        <lane id=":1345078953_1_1" index="1" disallow="pedestrian bicycle tram rail_urban rail rail_electric rail_fast ship" speed="22.22" length="10.67" shape="277.12,748.15 279.55,745.98 280.85,743.98 282.26,742.20 285.02,740.71"/>
    </edge>
    <edge id=":1345078970_0" function="internal">
        <lane id=":1345078970_0_0" index="0" disallow="pedestrian bicycle tram rail_urban rail rail_electric rail_fast ship" speed="22.22" length="8.25" shape="383.64,707.19 385.81,706.14 387.14,705.08 388.47,704.04 390.65,703.03"/>
        <lane id=":1345078970_0_1" index="1" disallow="pedestrian bicycle tram rail_urban rail rail_electric rail_fast ship" speed="22.22" length="8.25" shape="382.55,704.18 384.89,703.60 386.59,703.57 388.29,703.57 390.65,703.03"/>
        <lane id=":1345078970_0_2" index="2" disallow="pedestrian bicycle tram rail_urban rail rail_electric rail_fast ship" speed="22.22" length="8.25" shape="381.46,701.17 383.82,700.58 385.53,700.56 387.24,700.54 389.62,700.00"/>
    </edge>
    <edge id=":1345078977_0" function="internal">
        <lane id=":1345078977_0_0" index="0" disallow="pedestrian bicycle tram rail_urban rail rail_electric rail_fast ship" speed="20.83" length="33.67" shape="574.61,637.95 580.92,634.19 587.32,630.24 594.76,626.34 604.18,622.72"/>
        <lane id=":1345078977_0_1" index="1" disallow="pedestrian bicycle tram rail_urban rail rail_electric rail_fast ship" speed="20.83" length="33.67" shape="573.07,635.14 579.48,631.34 586.07,627.31 593.71,623.33 603.22,619.67"/>
    </edge>
    <edge id=":1345078977_2" function="internal">
        <lane id=":1345078977_2_0" index="0" disallow="pedestrian bicycle tram rail_urban rail rail_electric rail_fast ship" speed="19.44" length="33.84" shape="571.52,631.52 603.22,619.67"/>
        <lane id=":1345078977_2_1" index="1" disallow="pedestrian bicycle tram rail_urban rail rail_electric rail_fast ship" speed="19.44" length="33.84" shape="570.55,628.47 602.25,616.62"/>
    </edge>
    <edge id=":1345078981_0" function="internal">
        <lane id=":1345078981_0_0" index="0" disallow="tram rail_urban rail rail_electric rail_fast ship" speed="15.28" length="16.84" shape="201.21,713.77 198.24,709.83 196.73,706.77 195.69,703.44 194.14,698.68"/>
    </edge>
    <edge id=":1345078981_1" function="internal">
        <lane id=":1345078981_1_0" index="0" disallow="tram rail_urban rail rail_electric rail_fast ship" speed="15.28" length="17.96" shape="198.76,715.83 195.58,711.63 193.94,708.39 192.81,704.85 191.13,699.77"/>
    </edge>
    <edge id=":1345078981_2" function="internal">
        <lane id=":1345078981_2_0" index="0" disallow="tram rail_urban rail rail_electric rail_fast ship" speed="16.67" length="18.34" shape="196.31,717.89 192.86,713.01 190.76,708.78 189.16,705.15 187.21,702.04"/>
    </edge>
    <edge id=":1345079001_0" function="internal">
        <lane id=":1345079001_0_0" index="0" disallow="tram rail_urban rail rail_electric rail_fast ship" speed="27.78" length="19.40" shape="215.19,638.42 198.49,648.24"/>
        <lane id=":1345079001_0_1" index="1" disallow="tram rail_urban rail rail_electric rail_fast ship" speed="27.78" length="19.40" shape="216.87,641.14 200.13,650.98"/>
    </edge>
    <edge id=":1345079001_2" function="internal">
        <lane id=":1345079001_2_0" index="0" disallow="tram rail_urban rail rail_electric rail_fast ship" speed="20.84" length="19.03" shape="206.76,659.26 210.44,655.13 212.93,652.22 215.70,649.67 220.23,646.58"/>
        <lane id=":1345079001_2_1" index="1" disallow="tram rail_urban rail rail_electric rail_fast ship" speed="20.84" length="19.03" shape="204.44,657.06 208.29,652.75 210.90,649.73 213.81,647.08 218.55,643.86"/>
    </edge>
    <edge id=":1345079001_4" function="internal">
        <lane id=":1345079001_4_0" index="0" disallow="tram rail_urban rail rail_electric rail_fast ship" speed="5.13" length="10.36" shape="204.44,657.06 205.46,654.55 204.68,652.10 202.70,650.62 200.13,650.98"/>
    </edge>
    <edge id=":1345079001_5" function="internal">
        <lane id=":1345079001_5_0" index="0" disallow="tram rail_urban rail rail_electric rail_fast ship" speed="27.78" length="19.47" shape="201.77,653.73 218.55,643.86"/>
    </edge>
    <edge id=":1345079015_0" function="internal">
        <lane id=":1345079015_0_0" index="0" disallow="pedestrian bicycle tram rail_urban rail rail_electric rail_fast ship" speed="22.22" length="8.12" shape="292.73,698.04 290.45,698.88 288.75,699.11 287.07,699.38 284.83,700.32"/>
        <lane id=":1345079015_0_1" index="1" disallow="pedestrian bicycle tram rail_urban rail rail_electric rail_fast ship" speed="22.22" length="8.12" shape="292.73,698.04 290.70,699.31 289.52,700.52 288.35,701.76 286.36,703.13"/>
        <lane id=":1345079015_0_2" index="2" disallow="pedestrian bicycle tram rail_urban rail rail_electric rail_fast ship" speed="22.22" length="8.12" shape="294.14,700.91 292.14,702.17 290.98,703.36 289.85,704.59 287.90,705.94"/>
        <lane id=":1345079015_0_3" index="3" disallow="pedestrian bicycle tram rail_urban rail rail_electric rail_fast ship" speed="22.22" length="8.12" shape="295.54,703.79 293.58,705.02 292.45,706.21 291.34,707.42 289.43,708.74"/>
    </edge>
    <edge id=":1345086710_0" function="internal">
        <lane id=":1345086710_0_0" index="0" disallow="tram rail_urban rail rail_electric rail_fast ship" speed="16.67" length="8.21" shape="349.26,820.40 346.98,821.18 345.30,821.36 343.62,821.54 341.34,822.31"/>
        <lane id=":1345086710_0_1" index="1" disallow="tram rail_urban rail rail_electric rail_fast ship" speed="16.67" length="8.21" shape="349.26,820.40 347.19,821.64 345.97,822.81 344.75,823.99 342.68,825.22"/>
        <lane id=":1345086710_0_2" index="2" disallow="tram rail_urban rail rail_electric rail_fast ship" speed="16.67" length="8.21" shape="350.61,823.30 348.54,824.54 347.32,825.72 346.09,826.89 344.02,828.12"/>
    </edge>
    <edge id=":1345103809_0" function="internal">
        <lane id=":1345103809_0_0" index="0" disallow="tram rail_urban rail rail_electric rail_fast ship" speed="13.89" length="12.16" shape="740.06,1804.99 736.79,1805.54 734.08,1806.10 731.38,1806.76 728.18,1807.60"/>
    </edge>
    <edge id=":1345103809_1" function="internal">
        <lane id=":1345103809_1_0" index="0" disallow="tram rail_urban rail rail_electric rail_fast ship" speed="5.54" length="4.53" shape="732.36,1812.43 733.17,1809.61 732.79,1808.06"/>
    </edge>
    <edge id=":1345103809_2" function="internal">
        <lane id=":1345103809_2_0" index="0" disallow="tram rail_urban rail rail_electric rail_fast ship" speed="5.54" length="4.91" shape="732.79,1808.06 732.75,1807.87 731.08,1807.20 728.18,1807.60"/>
    </edge>
    <edge id=":1345143345_0" function="internal">
        <lane id=":1345143345_0_0" index="0" disallow="tram rail_urban rail rail_electric rail_fast ship" speed="13.89" length="8.14" shape="803.36,1357.34 804.95,1359.13 806.33,1360.09 807.74,1361.03 809.40,1362.76"/>
        <lane id=":1345143345_0_1" index="1" disallow="tram rail_urban rail rail_electric rail_fast ship" speed="13.89" length="8.14" shape="805.96,1355.48 807.14,1357.55 807.63,1359.15 808.15,1360.74 809.40,1362.76"/>
    </edge>
    <edge id=":1358272512_0" function="internal">
        <lane id=":1358272512_0_0" index="0" disallow="tram rail_urban rail rail_electric rail_fast ship" speed="8.51" length="14.73" shape="1038.83,1607.06 1034.62,1609.59 1031.00,1610.71 1027.96,1610.43 1025.49,1608.75"/>
    </edge>
    <edge id=":1358272512_1" function="internal">
        <lane id=":1358272512_1_0" index="0" disallow="tram rail_urban rail rail_electric rail_fast ship" speed="13.89" length="17.86" shape="1038.83,1607.06 1034.70,1610.09 1031.74,1612.06 1028.54,1613.47 1023.65,1614.86"/>
        <lane id=":1358272512_1_1" index="1" disallow="tram rail_urban rail rail_electric rail_fast ship" speed="13.89" length="17.86" shape="1040.69,1609.66 1036.27,1612.89 1033.10,1614.98 1029.67,1616.49 1024.44,1617.97"/>
    </edge>
    <edge id=":1358272512_3" function="internal">
        <lane id=":1358272512_3_0" index="0" disallow="tram rail_urban rail rail_electric rail_fast ship" speed="13.89" length="17.92" shape="1041.60,1616.34 1036.23,1613.93 1031.85,1612.38 1028.32,1610.91 1025.49,1608.75"/>
    </edge>
    <edge id=":1358272512_4" function="internal">
        <lane id=":1358272512_4_0" index="0" disallow="tram rail_urban rail rail_electric rail_fast ship" speed="13.89" length="18.06" shape="1041.60,1616.34 1036.66,1614.04 1032.91,1613.22 1029.02,1613.59 1023.65,1614.86"/>
        <lane id=":1358272512_4_1" index="1" disallow="tram rail_urban rail rail_electric rail_fast ship" speed="11.01" length="18.06" shape="1041.03,1619.65 1038.39,1617.76 1034.74,1616.85 1030.09,1616.92 1024.44,1617.97"/>
    </edge>
    <edge id=":1358272531_0" function="internal">
        <lane id=":1358272531_0_0" index="0" disallow="tram rail_urban rail rail_electric rail_fast ship" speed="13.89" length="9.66" shape="1049.91,1633.56 1049.77,1630.68 1049.49,1628.67 1049.51,1626.72 1050.27,1624.03"/>
    </edge>
    <edge id=":1358272531_1" function="internal">
        <lane id=":1358272531_1_0" index="0" disallow="tram rail_urban rail rail_electric rail_fast ship" speed="13.33" length="14.67" shape="1049.91,1633.56 1049.94,1629.05 1049.49,1625.88 1048.09,1623.07 1045.29,1619.60"/>
        <lane id=":1358272531_1_1" index="1" disallow="tram rail_urban rail rail_electric rail_fast ship" speed="12.69" length="14.67" shape="1046.71,1633.49 1046.69,1629.38 1046.15,1626.51 1044.75,1623.98 1042.10,1620.84"/>
    </edge>
    <edge id=":1358272552_0" function="internal">
        <lane id=":1358272552_0_0" index="0" disallow="tram rail_urban rail rail_electric rail_fast ship" speed="8.29" length="5.45" shape="1020.89,1647.47 1021.95,1648.63 1022.45,1649.62 1022.62,1650.76 1022.74,1652.38"/>
    </edge>
    <edge id=":1358272552_1" function="internal">
        <lane id=":1358272552_1_0" index="0" disallow="tram rail_urban rail rail_electric rail_fast ship" speed="13.89" length="5.26" shape="1020.89,1647.47 1022.23,1648.52 1023.32,1648.98 1024.53,1649.26 1026.20,1649.77"/>
        <lane id=":1358272552_1_1" index="1" disallow="tram rail_urban rail rail_electric rail_fast ship" speed="13.89" length="5.26" shape="1023.09,1645.14 1024.16,1645.95 1025.04,1646.25 1026.02,1646.41 1027.35,1646.79"/>
    </edge>
    <edge id=":1358272554_0" function="internal">
        <lane id=":1358272554_0_0" index="0" disallow="tram rail_urban rail rail_electric rail_fast ship" speed="12.04" length="10.35" shape="1037.62,1655.82 1038.16,1652.84 1038.90,1650.85 1040.19,1649.14 1042.37,1647.00"/>
    </edge>
    <edge id=":1358272554_1" function="internal">
        <lane id=":1358272554_1_0" index="0" disallow="tram rail_urban rail rail_electric rail_fast ship" speed="11.27" length="10.29" shape="1032.47,1650.41 1035.69,1650.37 1037.95,1650.04 1039.95,1649.05 1042.37,1647.00"/>
        <lane id=":1358272554_1_1" index="1" disallow="tram rail_urban rail rail_electric rail_fast ship" speed="10.63" length="10.29" shape="1031.26,1647.22 1034.13,1647.26 1036.19,1647.13 1038.01,1646.41 1040.17,1644.68"/>
    </edge>
    <edge id=":1358272689_0" function="internal">
        <lane id=":1358272689_0_0" index="0" disallow="tram rail_urban rail rail_electric rail_fast ship" speed="13.89" length="5.85" shape="1007.92,1786.18 1006.98,1784.74 1006.08,1783.92 1005.20,1783.08 1004.37,1781.59"/>
    </edge>
    <edge id=":1358272689_1" function="internal">
        <lane id=":1358272689_1_0" index="0" disallow="tram rail_urban rail rail_electric rail_fast ship" speed="8.73" length="5.05" shape="1001.38,1784.32 1002.72,1784.99 1003.63,1785.54 1004.32,1786.29 1005.04,1787.57"/>
    </edge>
    <edge id=":1358272727_0" function="internal">
        <lane id=":1358272727_0_0" index="0" disallow="tram rail_urban rail rail_electric rail_fast ship" speed="13.89" length="6.63" shape="727.40,1819.56 729.30,1819.05 730.62,1818.77 731.95,1818.57 733.90,1818.29"/>
    </edge>
    <edge id=":1358272727_1" function="internal">