<?xml version="1.0" encoding="UTF-8"?>

<!-- generated on Thu 08 Aug 2019 01:36:10 PM by Eclipse SUMO netedit Version v1_2_0+1287-e3a0083b72
<configuration xmlns:xsi="http://www.w3.org/2001/XMLSchema-instance" xsi:noNamespaceSchemaLocation="http://sumo.dlr.de/xsd/netconvertConfiguration.xsd">

    <input>
        <sumo-net-file value="/home/leeyiyuan/carla/Data/map.net.xml"/>
    </input>

    <output>
        <output-file value="/home/leeyiyuan/carla/Data/map.net.xml"/>
    </output>

    <processing>
        <geometry.max-grade.fix value="false"/>
        <offset.disable-normalization value="true"/>
        <lefthand value="true"/>
    </processing>

    <junctions>
        <no-turnarounds value="true"/>
        <junctions.corner-detail value="5"/>
        <junctions.limit-turn-speed value="5.5"/>
        <rectangular-lane-cut value="false"/>
    </junctions>

    <pedestrian>
        <walkingareas value="false"/>
    </pedestrian>

</configuration>
-->

<net version="1.3" junctionCornerDetail="5" lefthand="true" limitTurnSpeed="5.50" xmlns:xsi="http://www.w3.org/2001/XMLSchema-instance" xsi:noNamespaceSchemaLocation="http://sumo.dlr.de/xsd/net_file.xsd">

    <location netOffset="-362634.88,-142028.22" convBoundary="0.00,0.00,2433.45,2756.24" origBoundary="103.675226,1.265289,103.839792,1.348183" projParameter="+proj=utm +zone=48 +ellps=WGS84 +datum=WGS84 +units=m +no_defs"/>

    <type id="highway.bridleway" priority="1" numLanes="1" speed="2.78" allow="pedestrian" oneway="1" width="2.00"/>
    <type id="highway.bus_guideway" priority="1" numLanes="1" speed="27.78" allow="bus" oneway="1"/>
    <type id="highway.cycleway" priority="1" numLanes="1" speed="8.33" allow="bicycle" oneway="0" width="1.00"/>
    <type id="highway.footway" priority="1" numLanes="1" speed="2.78" allow="pedestrian" oneway="1" width="2.00"/>
    <type id="highway.ford" priority="1" numLanes="1" speed="2.78" allow="army" oneway="0"/>
    <type id="highway.living_street" priority="2" numLanes="1" speed="2.78" disallow="tram rail_urban rail rail_electric rail_fast ship" oneway="0"/>
    <type id="highway.motorway" priority="14" numLanes="2" speed="39.44" allow="private emergency authority army vip passenger hov taxi bus coach delivery truck trailer motorcycle evehicle custom1 custom2" oneway="1"/>
    <type id="highway.motorway_link" priority="9" numLanes="1" speed="22.22" allow="private emergency authority army vip passenger hov taxi bus coach delivery truck trailer motorcycle evehicle custom1 custom2" oneway="1"/>
    <type id="highway.path" priority="1" numLanes="1" speed="2.78" allow="pedestrian bicycle" oneway="1" width="2.00"/>
    <type id="highway.pedestrian" priority="1" numLanes="1" speed="2.78" allow="pedestrian" oneway="1" width="2.00"/>
    <type id="highway.primary" priority="12" numLanes="2" speed="27.78" disallow="tram rail_urban rail rail_electric rail_fast ship" oneway="0"/>
    <type id="highway.primary_link" priority="7" numLanes="1" speed="22.22" disallow="tram rail_urban rail rail_electric rail_fast ship" oneway="0"/>
    <type id="highway.raceway" priority="15" numLanes="2" speed="83.33" allow="vip" oneway="0"/>
    <type id="highway.residential" priority="3" numLanes="1" speed="13.89" disallow="tram rail_urban rail rail_electric rail_fast ship" oneway="0"/>
    <type id="highway.secondary" priority="11" numLanes="2" speed="27.78" disallow="tram rail_urban rail rail_electric rail_fast ship" oneway="0"/>
    <type id="highway.secondary_link" priority="6" numLanes="1" speed="22.22" disallow="tram rail_urban rail rail_electric rail_fast ship" oneway="0"/>
    <type id="highway.service" priority="1" numLanes="1" speed="5.56" allow="pedestrian delivery bicycle" oneway="0"/>
    <type id="highway.stairs" priority="1" numLanes="1" speed="1.39" allow="pedestrian" oneway="1" width="2.00"/>
    <type id="highway.step" priority="1" numLanes="1" speed="1.39" allow="pedestrian" oneway="1" width="2.00"/>
    <type id="highway.steps" priority="1" numLanes="1" speed="1.39" allow="pedestrian" oneway="1" width="2.00"/>
    <type id="highway.tertiary" priority="10" numLanes="1" speed="22.22" disallow="tram rail_urban rail rail_electric rail_fast ship" oneway="0"/>
    <type id="highway.tertiary_link" priority="5" numLanes="1" speed="22.22" disallow="tram rail_urban rail rail_electric rail_fast ship" oneway="0"/>
    <type id="highway.track" priority="1" numLanes="1" speed="5.56" disallow="tram rail_urban rail rail_electric rail_fast ship" oneway="0"/>
    <type id="highway.trunk" priority="13" numLanes="2" speed="27.78" disallow="pedestrian bicycle tram rail_urban rail rail_electric rail_fast ship" oneway="0"/>
    <type id="highway.trunk_link" priority="8" numLanes="1" speed="22.22" disallow="pedestrian bicycle tram rail_urban rail rail_electric rail_fast ship" oneway="0"/>
    <type id="highway.unclassified" priority="4" numLanes="1" speed="13.89" disallow="tram rail_urban rail rail_electric rail_fast ship" oneway="0"/>
    <type id="highway.unsurfaced" priority="1" numLanes="1" speed="8.33" disallow="tram rail_urban rail rail_electric rail_fast ship" oneway="0"/>
    <type id="railway.highspeed" priority="21" numLanes="1" speed="69.44" allow="rail_fast" oneway="1"/>
    <type id="railway.light_rail" priority="19" numLanes="1" speed="27.78" allow="rail_urban" oneway="1"/>
    <type id="railway.preserved" priority="16" numLanes="1" speed="27.78" allow="rail" oneway="1"/>
    <type id="railway.rail" priority="20" numLanes="1" speed="44.44" allow="rail" oneway="1"/>
    <type id="railway.subway" priority="18" numLanes="1" speed="27.78" allow="rail_urban" oneway="1"/>
    <type id="railway.tram" priority="17" numLanes="1" speed="13.89" allow="tram" oneway="1"/>

    <edge id=":1199539758_0" function="internal">
        <lane id=":1199539758_0_0" index="0" disallow="tram rail_urban rail rail_electric rail_fast ship" speed="4.08" length="5.84" width="4.00" shape="820.49,795.02 821.66,793.65 821.86,792.55 821.11,791.73 819.39,791.18"/>
    </edge>
    <edge id=":1199539763_0" function="internal">
        <lane id=":1199539763_0_0" index="0" disallow="tram rail_urban rail rail_electric rail_fast ship" speed="4.08" length="5.84" width="4.00" shape="590.69,800.51 589.58,801.93 589.42,803.04 590.21,803.83 591.95,804.31"/>
    </edge>
    <edge id=":1199539784_0" function="internal">
        <lane id=":1199539784_0_0" index="0" disallow="tram rail_urban rail rail_electric rail_fast ship" speed="6.53" length="9.76" width="4.00" shape="637.20,785.16 634.51,785.63 632.43,785.07 630.96,783.50 630.09,780.92"/>
    </edge>
    <edge id=":1199539784_1" function="internal">
        <lane id=":1199539784_1_0" index="0" disallow="tram rail_urban rail rail_electric rail_fast ship" speed="13.89" length="16.07" width="4.00" shape="637.20,785.16 621.93,790.17"/>
    </edge>
    <edge id=":1199539784_2" function="internal">
        <lane id=":1199539784_2_0" index="0" disallow="tram rail_urban rail rail_electric rail_fast ship" speed="13.89" length="16.05" width="4.00" shape="623.19,793.97 638.43,788.97"/>
    </edge>
    <edge id=":1199539784_3" function="internal">
        <lane id=":1199539784_3_0" index="0" disallow="tram rail_urban rail rail_electric rail_fast ship" speed="9.08" length="6.75" width="4.00" shape="623.19,793.97 626.90,792.07 628.57,790.10"/>
    </edge>
    <edge id=":1199539784_6" function="internal">
        <lane id=":1199539784_6_0" index="0" disallow="tram rail_urban rail rail_electric rail_fast ship" speed="9.08" length="9.60" width="4.00" shape="628.57,790.10 629.28,789.26 630.35,785.54 630.09,780.92"/>
    </edge>
    <edge id=":1199539784_4" function="internal">
        <lane id=":1199539784_4_0" index="0" disallow="tram rail_urban rail rail_electric rail_fast ship" speed="7.43" length="10.55" width="4.00" shape="626.16,781.63 626.35,784.69 625.71,787.13 624.23,788.96 621.93,790.17"/>
    </edge>
    <edge id=":1199539784_5" function="internal">
        <lane id=":1199539784_5_0" index="0" disallow="tram rail_urban rail rail_electric rail_fast ship" speed="8.35" length="16.87" width="4.00" shape="626.16,781.63 627.65,786.10 630.19,788.81 633.79,789.77 638.43,788.97"/>
    </edge>
    <edge id=":1199539821_0" function="internal">
        <lane id=":1199539821_0_0" index="0" disallow="tram rail_urban rail rail_electric rail_fast ship" speed="13.89" length="16.20" width="4.00" shape="753.59,739.98 751.74,723.89"/>
    </edge>
    <edge id=":1199539821_1" function="internal">
        <lane id=":1199539821_1_0" index="0" disallow="tram rail_urban rail rail_electric rail_fast ship" speed="8.30" length="7.27" width="4.00" shape="753.59,739.98 752.40,735.33 750.83,733.42"/>
    </edge>
    <edge id=":1199539821_6" function="internal">
        <lane id=":1199539821_6_0" index="0" disallow="tram rail_urban rail rail_electric rail_fast ship" speed="8.30" length="9.82" width="4.00" shape="750.83,733.42 750.01,732.44 746.44,731.34 741.68,732.01"/>
    </edge>
    <edge id=":1199539821_2" function="internal">
        <lane id=":1199539821_2_0" index="0" disallow="tram rail_urban rail rail_electric rail_fast ship" speed="6.46" length="9.79" width="4.00" shape="742.80,735.85 745.52,735.47 747.57,736.10 748.93,737.75 749.62,740.41"/>
    </edge>
    <edge id=":1199539821_3" function="internal">
        <lane id=":1199539821_3_0" index="0" disallow="tram rail_urban rail rail_electric rail_fast ship" speed="9.19" length="16.48" width="4.00" shape="742.80,735.85 747.13,734.00 750.06,731.40 751.60,728.02 751.74,723.89"/>
    </edge>
    <edge id=":1199539821_4" function="internal">
        <lane id=":1199539821_4_0" index="0" disallow="tram rail_urban rail rail_electric rail_fast ship" speed="7.55" length="10.76" width="4.00" shape="747.77,724.37 747.65,726.97 746.60,729.11 744.61,730.79 741.68,732.01"/>
    </edge>
    <edge id=":1199539821_5" function="internal">
        <lane id=":1199539821_5_0" index="0" disallow="tram rail_urban rail rail_electric rail_fast ship" speed="13.89" length="16.14" width="4.00" shape="747.77,724.37 749.62,740.41"/>
    </edge>
    <edge id=":1201719372_0" function="internal">
        <lane id=":1201719372_0_0" index="0" disallow="tram rail_urban rail rail_electric rail_fast ship" speed="4.08" length="5.84" width="4.00" shape="463.29,933.36 465.03,933.83 466.11,933.54 466.53,932.51 466.29,930.72"/>
    </edge>
    <edge id=":1201719386_0" function="internal">
        <lane id=":1201719386_0_0" index="0" disallow="tram rail_urban rail rail_electric rail_fast ship" speed="4.08" length="5.84" width="4.00" shape="862.17,827.01 863.46,828.27 864.54,828.54 865.41,827.84 866.07,826.17"/>
    </edge>
    <edge id=":1201719402_0" function="internal">
        <lane id=":1201719402_0_0" index="0" disallow="tram rail_urban rail rail_electric rail_fast ship" speed="4.08" length="5.84" width="4.00" shape="518.91,894.24 520.66,894.66 521.74,894.35 522.13,893.30 521.85,891.52"/>
    </edge>
    <edge id=":1201732596_0" function="internal">
        <lane id=":1201732596_0_0" index="0" disallow="tram rail_urban rail rail_electric rail_fast ship" speed="7.45" length="12.53" width="4.00" shape="173.11,1201.00 169.73,1201.75 167.47,1203.41 166.34,1205.97 166.34,1209.43"/>
    </edge>
    <edge id=":1201732596_1" function="internal">
        <lane id=":1201732596_1_0" index="0" disallow="tram rail_urban rail rail_electric rail_fast ship" speed="6.55" length="9.35" width="4.00" shape="173.11,1201.00 171.47,1201.60 170.46,1203.12 170.07,1205.54 170.30,1208.87"/>
    </edge>
    <edge id=":1201738180_0" function="internal">
        <lane id=":1201738180_0_0" index="0" disallow="tram rail_urban rail rail_electric rail_fast ship" speed="4.08" length="5.84" width="4.00" shape="99.89,1377.87 98.47,1378.98 98.05,1380.01 98.62,1380.97 100.19,1381.85"/>
    </edge>
    <edge id=":1249297139_0" function="internal">
        <lane id=":1249297139_0_0" index="0" disallow="tram rail_urban rail rail_electric rail_fast ship" speed="13.89" length="8.62" width="4.00" shape="2176.14,1051.80 2174.73,1053.82 2172.94,1054.63 2171.11,1055.41 2169.55,1057.37"/>
        <lane id=":1249297139_0_1" index="1" disallow="tram rail_urban rail rail_electric rail_fast ship" speed="13.89" length="8.62" width="4.00" shape="2176.14,1051.80 2173.20,1059.00"/>
        <lane id=":1249297139_0_2" index="2" disallow="tram rail_urban rail rail_electric rail_fast ship" speed="13.89" length="8.62" width="4.00" shape="2176.14,1051.80 2175.86,1054.36 2176.60,1056.26 2177.29,1058.13 2176.85,1060.64"/>
    </edge>
    <edge id=":1249567541_0" function="internal">
        <lane id=":1249567541_0_0" index="0" disallow="tram rail_urban rail rail_electric rail_fast ship" speed="13.89" length="10.42" width="4.00" shape="2107.69,1193.13 2107.75,1190.15 2108.45,1188.18 2109.64,1186.30 2111.18,1183.59"/>
    </edge>
    <edge id=":1249567541_1" function="internal">
        <lane id=":1249567541_1_0" index="0" disallow="tram rail_urban rail rail_electric rail_fast ship" speed="13.89" length="11.60" width="4.00" shape="2107.69,1193.13 2107.14,1189.71 2106.54,1187.28 2106.50,1184.95 2107.59,1181.84"/>
    </edge>
    <edge id=":1249567541_2" function="internal">
        <lane id=":1249567541_2_0" index="0" disallow="tram rail_urban rail rail_electric rail_fast ship" speed="10.42" length="11.44" width="4.00" shape="2107.69,1193.13 2107.11,1189.44 2106.00,1186.38 2104.37,1183.95 2102.22,1182.15"/>
        <lane id=":1249567541_2_1" index="1" disallow="tram rail_urban rail rail_electric rail_fast ship" speed="9.37" length="11.44" width="4.00" shape="2103.70,1193.45 2103.23,1190.67 2102.29,1188.32 2100.89,1186.39 2099.01,1184.88"/>
    </edge>
    <edge id=":1249567542_0" function="internal">
        <lane id=":1249567542_0_0" index="0" disallow="tram rail_urban rail rail_electric rail_fast ship" speed="12.64" length="11.28" width="4.00" shape="2090.23,1215.20 2091.94,1212.72 2093.10,1210.88 2094.57,1209.50 2097.21,1208.41"/>
        <lane id=":1249567542_0_1" index="1" disallow="tram rail_urban rail rail_electric rail_fast ship" speed="13.89" length="11.28" width="4.00" shape="2087.10,1212.71 2089.28,1209.67 2090.83,1207.49 2092.76,1205.88 2096.10,1204.57"/>
    </edge>
    <edge id=":1249567542_2" function="internal">
        <lane id=":1249567542_2_0" index="0" disallow="tram rail_urban rail rail_electric rail_fast ship" speed="11.16" length="11.34" width="4.00" shape="2085.45,1207.34 2088.06,1208.54 2090.89,1209.12 2093.94,1209.08 2097.21,1208.41"/>
        <lane id=":1249567542_2_1" index="1" disallow="tram rail_urban rail rail_electric rail_fast ship" speed="10.43" length="11.34" width="4.00" shape="2085.99,1203.00 2088.51,1204.23 2091.03,1204.91 2093.56,1205.02 2096.10,1204.57"/>
    </edge>
    <edge id=":1249567544_0" function="internal">
        <lane id=":1249567544_0_0" index="0" disallow="tram rail_urban rail rail_electric rail_fast ship" speed="8.84" length="5.89" width="4.00" shape="2078.02,1199.31 2078.18,1201.00 2077.97,1202.17 2077.39,1203.28 2076.46,1204.77"/>
    </edge>
    <edge id=":1249567544_1" function="internal">
        <lane id=":1249567544_1_0" index="0" disallow="tram rail_urban rail rail_electric rail_fast ship" speed="13.89" length="5.61" width="4.00" shape="2078.02,1199.31 2078.53,1201.08 2079.27,1202.15 2080.23,1203.12 2081.44,1204.61"/>
        <lane id=":1249567544_1_1" index="1" disallow="tram rail_urban rail rail_electric rail_fast ship" speed="7.05" length="5.61" width="4.00" shape="2081.96,1198.63 2082.28,1199.67 2082.86,1200.63 2083.70,1201.50 2084.81,1202.29"/>
    </edge>
    <edge id=":1249567564_0" function="internal">
        <lane id=":1249567564_0_0" index="0" disallow="tram rail_urban rail rail_electric rail_fast ship" speed="13.89" length="7.80" width="4.00" shape="2174.46,1092.95 2176.02,1091.17 2177.43,1090.22 2178.77,1089.22 2180.13,1087.32"/>
        <lane id=":1249567564_0_1" index="1" disallow="tram rail_urban rail rail_electric rail_fast ship" speed="13.89" length="7.80" width="4.00" shape="2174.46,1092.95 2175.45,1090.90 2175.65,1089.28 2175.79,1087.63 2176.58,1085.46"/>
        <lane id=":1249567564_0_2" index="2" disallow="tram rail_urban rail rail_electric rail_fast ship" speed="13.89" length="7.80" width="4.00" shape="2171.13,1090.72 2172.05,1088.78 2172.21,1087.24 2172.31,1085.66 2173.04,1083.60"/>
    </edge>
    <edge id=":1249567568_0" function="internal">
        <lane id=":1249567568_0_0" index="0" disallow="tram rail_urban rail rail_electric rail_fast ship" speed="13.89" length="7.61" width="4.00" shape="2203.49,977.97 2205.00,976.50 2206.38,975.88 2207.82,975.31 2209.51,973.99"/>
        <lane id=":1249567568_0_1" index="1" disallow="tram rail_urban rail rail_electric rail_fast ship" speed="13.89" length="7.61" width="4.00" shape="2203.49,977.97 2204.57,976.04 2204.94,974.49 2205.37,972.99 2206.63,971.22"/>
        <lane id=":1249567568_0_2" index="2" disallow="tram rail_urban rail rail_electric rail_fast ship" speed="13.89" length="7.61" width="4.00" shape="2200.30,975.55 2201.46,973.51 2201.89,971.89 2202.39,970.31 2203.75,968.45"/>
    </edge>
    <edge id=":1249570061_0" function="internal">
        <lane id=":1249570061_0_0" index="0" disallow="tram rail_urban rail rail_electric rail_fast ship" speed="13.89" length="9.45" width="4.00" shape="1967.60,1330.30 1965.26,1331.85 1963.67,1332.94 1962.03,1333.93 1959.54,1335.22"/>
    </edge>
    <edge id=":1249570061_1" function="internal">
        <lane id=":1249570061_1_0" index="0" disallow="tram rail_urban rail rail_electric rail_fast ship" speed="8.50" length="9.70" width="4.00" shape="1968.77,1335.50 1966.66,1334.43 1964.42,1334.03 1962.04,1334.29 1959.54,1335.22"/>
    </edge>
    <edge id=":1345078953_0" function="internal">
        <lane id=":1345078953_0_0" index="0" disallow="pedestrian bicycle tram rail_urban rail rail_electric rail_fast ship" speed="12.86" length="9.68" width="4.00" shape="284.59,752.79 286.24,750.41 287.37,748.65 288.79,747.33 291.32,746.23"/>
    </edge>
    <edge id=":1345078953_1" function="internal">
        <lane id=":1345078953_1_0" index="0" disallow="pedestrian bicycle tram rail_urban rail rail_electric rail_fast ship" speed="22.22" length="11.80" width="4.00" shape="281.60,749.52 284.15,747.36 285.62,745.45 287.21,743.79 290.12,742.41"/>
        <lane id=":1345078953_1_1" index="1" disallow="pedestrian bicycle tram rail_urban rail rail_electric rail_fast ship" speed="22.22" length="11.80" width="4.00" shape="279.41,746.17 282.23,743.84 283.90,741.82 285.70,740.08 288.92,738.59"/>
    </edge>
    <edge id=":1345078970_0" function="internal">
        <lane id=":1345078970_0_0" index="0" disallow="pedestrian bicycle tram rail_urban rail rail_electric rail_fast ship" speed="22.22" length="8.30" width="4.00" shape="383.99,707.91 386.13,706.80 387.39,705.63 388.65,704.46 390.80,703.40"/>
        <lane id=":1345078970_0_1" index="1" disallow="pedestrian bicycle tram rail_urban rail rail_electric rail_fast ship" speed="22.22" length="8.30" width="4.00" shape="382.63,704.15 384.99,703.63 386.70,703.75 388.43,703.88 390.80,703.40"/>
        <lane id=":1345078970_0_2" index="2" disallow="pedestrian bicycle tram rail_urban rail rail_electric rail_fast ship" speed="22.22" length="8.30" width="4.00" shape="381.27,700.39 383.65,699.86 385.38,699.97 387.12,700.10 389.51,699.61"/>
    </edge>
    <edge id=":1345078977_0" function="internal">
        <lane id=":1345078977_0_0" index="0" disallow="pedestrian bicycle tram rail_urban rail rail_electric rail_fast ship" speed="20.83" length="7.98" width="4.00" shape="605.58,627.51 613.13,624.92"/>
        <lane id=":1345078977_0_1" index="1" disallow="pedestrian bicycle tram rail_urban rail rail_electric rail_fast ship" speed="20.83" length="7.98" width="4.00" shape="604.36,623.70 611.92,621.11"/>
    </edge>
    <edge id=":1345078977_2" function="internal">
        <lane id=":1345078977_2_0" index="0" disallow="pedestrian bicycle tram rail_urban rail rail_electric rail_fast ship" speed="19.44" length="8.33" width="4.00" shape="603.70,621.63 605.90,620.60 607.20,619.46 608.51,618.32 610.71,617.29"/>
        <lane id=":1345078977_2_1" index="1" disallow="pedestrian bicycle tram rail_urban rail rail_electric rail_fast ship" speed="19.44" length="8.33" width="4.00" shape="602.48,617.82 604.68,616.79 605.99,615.65 607.30,614.51 609.50,613.48"/>
    </edge>
    <edge id=":1345078981_0" function="internal">
        <lane id=":1345078981_0_0" index="0" disallow="tram rail_urban rail rail_electric rail_fast ship" speed="15.28" length="20.94" width="4.00" shape="204.77,710.55 200.30,706.10 196.75,703.08 194.42,699.62 193.60,693.88"/>
    </edge>
    <edge id=":1345078981_1" function="internal">
        <lane id=":1345078981_1_0" index="0" disallow="tram rail_urban rail rail_electric rail_fast ship" speed="15.28" length="22.64" width="4.00" shape="204.77,710.55 199.48,706.09 194.57,703.57 190.97,700.73 189.60,695.29"/>
    </edge>
    <edge id=":1345078981_2" function="internal">
        <lane id=":1345078981_2_0" index="0" disallow="tram rail_urban rail rail_electric rail_fast ship" speed="16.67" length="21.55" width="4.00" shape="201.70,713.12 196.62,708.01 191.95,704.58 187.98,701.99 184.99,699.39"/>
        <lane id=":1345078981_2_1" index="1" disallow="tram rail_urban rail rail_electric rail_fast ship" speed="16.67" length="21.55" width="4.00" shape="198.64,715.68 184.99,699.39"/>
        <lane id=":1345078981_2_2" index="2" disallow="tram rail_urban rail rail_electric rail_fast ship" speed="16.67" length="21.55" width="4.00" shape="195.57,718.25 191.44,712.34 188.88,707.15 187.02,702.79 184.99,699.39"/>
    </edge>
    <edge id=":1345079001_0" function="internal">
        <lane id=":1345079001_0_0" index="0" disallow="tram rail_urban rail rail_electric rail_fast ship" speed="27.78" length="22.25" width="4.00" shape="212.09,638.92 192.93,650.15"/>
        <lane id=":1345079001_0_1" index="1" disallow="tram rail_urban rail rail_electric rail_fast ship" speed="27.78" length="22.25" width="4.00" shape="214.20,642.32 194.97,653.59"/>
    </edge>
    <edge id=":1345079001_2" function="internal">
        <lane id=":1345079001_2_0" index="0" disallow="tram rail_urban rail rail_electric rail_fast ship" speed="20.84" length="21.79" width="4.00" shape="203.16,663.78 207.16,659.09 210.09,655.63 213.37,652.59 218.40,649.13"/>
        <lane id=":1345079001_2_1" index="1" disallow="tram rail_urban rail rail_electric rail_fast ship" speed="20.84" length="21.79" width="4.00" shape="200.25,661.03 204.38,656.24 207.59,652.56 211.14,649.29 216.30,645.72"/>
    </edge>
    <edge id=":1345079001_4" function="internal">
        <lane id=":1345079001_4_0" index="0" disallow="tram rail_urban rail rail_electric rail_fast ship" speed="5.70" length="12.66" width="4.00" shape="200.25,661.03 201.47,657.91 200.52,654.92 198.11,653.13 194.97,653.59"/>
    </edge>
    <edge id=":1345079001_5" function="internal">
        <lane id=":1345079001_5_0" index="0" disallow="tram rail_urban rail rail_electric rail_fast ship" speed="27.78" length="22.34" width="4.00" shape="197.02,657.03 216.30,645.72"/>
    </edge>
    <edge id=":1345079015_0" function="internal">
        <lane id=":1345079015_0_0" index="0" disallow="pedestrian bicycle tram rail_urban rail rail_electric rail_fast ship" speed="22.22" length="8.24" width="4.00" shape="292.38,697.32 290.04,698.11 288.28,698.23 286.54,698.37 284.25,699.27"/>
        <lane id=":1345079015_0_1" index="1" disallow="pedestrian bicycle tram rail_urban rail rail_electric rail_fast ship" speed="22.22" length="8.24" width="4.00" shape="292.38,697.32 290.35,698.65 289.24,699.98 288.15,701.34 286.17,702.78"/>
        <lane id=":1345079015_0_2" index="2" disallow="pedestrian bicycle tram rail_urban rail rail_electric rail_fast ship" speed="22.22" length="8.24" width="4.00" shape="294.14,700.91 292.16,702.23 291.08,703.54 290.02,704.88 288.09,706.29"/>
        <lane id=":1345079015_0_3" index="3" disallow="pedestrian bicycle tram rail_urban rail rail_electric rail_fast ship" speed="22.22" length="8.24" width="4.00" shape="295.89,704.51 293.96,705.80 292.92,707.09 291.89,708.41 290.01,709.80"/>
    </edge>
    <edge id=":1345086710_0" function="internal">
        <lane id=":1345086710_0_0" index="0" disallow="tram rail_urban rail rail_electric rail_fast ship" speed="16.67" length="8.32" width="4.00" shape="349.09,820.04 346.78,820.77 345.05,820.82 343.32,820.86 341.00,821.59"/>
        <lane id=":1345086710_0_1" index="1" disallow="tram rail_urban rail rail_electric rail_fast ship" speed="16.67" length="8.32" width="4.00" shape="349.09,820.04 347.04,821.34 345.89,822.63 344.73,823.92 342.68,825.22"/>
        <lane id=":1345086710_0_2" index="2" disallow="tram rail_urban rail rail_electric rail_fast ship" speed="16.67" length="8.32" width="4.00" shape="350.78,823.66 348.73,824.96 347.57,826.26 346.42,827.55 344.36,828.85"/>
    </edge>
    <edge id=":1345103809_0" function="internal">
        <lane id=":1345103809_0_0" index="0" disallow="tram rail_urban rail rail_electric rail_fast ship" speed="13.89" length="13.21" width="4.00" shape="740.28,1804.96 736.86,1805.54 733.79,1806.19 730.75,1806.93 727.39,1807.81"/>
    </edge>
    <edge id=":1345103809_1" function="internal">
        <lane id=":1345103809_1_0" index="0" disallow="tram rail_urban rail rail_electric rail_fast ship" speed="5.90" length="4.81" width="4.00" shape="732.04,1813.18 732.94,1810.05 732.57,1808.54"/>
    </edge>
    <edge id=":1345103809_2" function="internal">
        <lane id=":1345103809_2_0" index="0" disallow="tram rail_urban rail rail_electric rail_fast ship" speed="5.90" length="5.70" width="4.00" shape="732.57,1808.54 732.47,1808.11 730.62,1807.37 727.39,1807.81"/>
    </edge>
    <edge id=":1345143345_0" function="internal">
        <lane id=":1345143345_0_0" index="0" disallow="tram rail_urban rail rail_electric rail_fast ship" speed="13.89" length="8.26" width="4.00" shape="803.03,1357.57 804.68,1359.34 806.17,1360.20 807.68,1361.05 809.40,1362.76"/>
        <lane id=":1345143345_0_1" index="1" disallow="tram rail_urban rail rail_electric rail_fast ship" speed="13.89" length="8.26" width="4.00" shape="806.28,1355.24 807.42,1357.36 807.80,1359.04 808.19,1360.70 809.40,1362.76"/>
    </edge>
    <edge id=":1358272512_0" function="internal">
        <lane id=":1358272512_0_0" index="0" disallow="tram rail_urban rail rail_electric rail_fast ship" speed="9.03" length="16.48" width="4.00" shape="1039.65,1605.98 1034.94,1608.81 1030.88,1610.08 1027.48,1609.78 1024.73,1607.92"/>
    </edge>
    <edge id=":1358272512_1" function="internal">
        <lane id=":1358272512_1_0" index="0" disallow="tram rail_urban rail rail_electric rail_fast ship" speed="13.89" length="19.90" width="4.00" shape="1039.65,1605.98 1034.78,1608.84 1031.06,1610.17 1027.40,1611.58 1022.72,1614.68"/>
        <lane id=":1358272512_1_1" index="1" disallow="tram rail_urban rail rail_electric rail_fast ship" speed="13.89" length="19.90" width="4.00" shape="1041.98,1609.23 1036.81,1612.32 1032.77,1613.89 1028.80,1615.55 1023.83,1618.90"/>
    </edge>
    <edge id=":1358272512_3" function="internal">
        <lane id=":1358272512_3_0" index="0" disallow="tram rail_urban rail rail_electric rail_fast ship" speed="13.89" length="20.32" width="4.00" shape="1042.99,1616.61 1036.87,1613.82 1031.80,1611.91 1027.76,1610.18 1024.73,1607.92"/>
    </edge>
    <edge id=":1358272512_4" function="internal">
        <lane id=":1358272512_4_0" index="0" disallow="tram rail_urban rail rail_electric rail_fast ship" speed="11.70" length="20.69" width="4.00" shape="1042.99,1616.61 1036.57,1613.80 1031.05,1612.54 1026.43,1612.83 1022.72,1614.68"/>
        <lane id=":1358272512_4_1" index="1" disallow="tram rail_urban rail rail_electric rail_fast ship" speed="9.60" length="20.69" width="4.00" shape="1041.39,1620.64 1037.20,1617.05 1032.88,1615.56 1028.42,1616.18 1023.83,1618.90"/>
    </edge>
    <edge id=":1358272531_0" function="internal">
        <lane id=":1358272531_0_0" index="0" disallow="tram rail_urban rail rail_electric rail_fast ship" speed="13.89" length="9.96" width="4.00" shape="1050.31,1633.72 1050.11,1630.76 1049.70,1628.69 1049.60,1626.68 1050.32,1623.90"/>
    </edge>
    <edge id=":1358272531_1" function="internal">
        <lane id=":1358272531_1_0" index="0" disallow="tram rail_urban rail rail_electric rail_fast ship" speed="13.89" length="15.58" width="4.00" shape="1050.31,1633.72 1050.28,1628.77 1049.64,1625.32 1047.97,1622.26 1044.81,1618.46"/>
        <lane id=":1358272531_1_1" index="1" disallow="tram rail_urban rail rail_electric rail_fast ship" speed="12.93" length="15.58" width="4.00" shape="1046.31,1633.63 1046.26,1629.46 1045.68,1626.56 1044.21,1623.99 1041.53,1620.79"/>
    </edge>
    <edge id=":1358272552_0" function="internal">
        <lane id=":1358272552_0_0" index="0" disallow="tram rail_urban rail rail_electric rail_fast ship" speed="8.76" length="6.04" width="4.00" shape="1020.87,1647.99 1022.03,1649.28 1022.55,1650.39 1022.72,1651.66 1022.83,1653.46"/>
    </edge>
    <edge id=":1358272552_1" function="internal">
        <lane id=":1358272552_1_0" index="0" disallow="tram rail_urban rail rail_electric rail_fast ship" speed="13.89" length="5.79" width="4.00" shape="1020.87,1647.99 1022.36,1649.15 1023.60,1649.62 1024.96,1649.89 1026.83,1650.45"/>
        <lane id=":1358272552_1_1" index="1" disallow="tram rail_urban rail rail_electric rail_fast ship" speed="13.89" length="5.79" width="4.00" shape="1023.61,1645.09 1024.77,1645.93 1025.75,1646.20 1026.82,1646.32 1028.27,1646.71"/>
    </edge>
    <edge id=":1358272554_0" function="internal">
        <lane id=":1358272554_0_0" index="0" disallow="tram rail_urban rail rail_electric rail_fast ship" speed="12.36" length="10.84" width="4.00" shape="1037.41,1657.24 1037.91,1654.19 1038.59,1652.03 1039.84,1650.12 1042.08,1647.82"/>