<?xml version="1.0" encoding="UTF-8"?>

<!-- generated on Fri 23 Aug 2019 10:15:52 PM by Eclipse SUMO netedit Version v1_2_0+1287-e3a0083b72
<configuration xmlns:xsi="http://www.w3.org/2001/XMLSchema-instance" xsi:noNamespaceSchemaLocation="http://sumo.dlr.de/xsd/netconvertConfiguration.xsd">

    <input>
        <sumo-net-file value="/home/leeyiyuan/carla/Data/map.net.xml"/>
    </input>

    <output>
        <output-file value="/home/leeyiyuan/carla/Data/map.net.xml"/>
    </output>

    <processing>
        <geometry.max-grade.fix value="false"/>
        <offset.disable-normalization value="true"/>
        <lefthand value="true"/>
    </processing>

    <junctions>
        <no-turnarounds value="true"/>
        <junctions.corner-detail value="5"/>
        <junctions.limit-turn-speed value="5.5"/>
        <rectangular-lane-cut value="false"/>
    </junctions>

    <pedestrian>
        <walkingareas value="false"/>
    </pedestrian>

</configuration>
-->

<net version="1.3" junctionCornerDetail="5" lefthand="true" limitTurnSpeed="5.50" xmlns:xsi="http://www.w3.org/2001/XMLSchema-instance" xsi:noNamespaceSchemaLocation="http://sumo.dlr.de/xsd/net_file.xsd">

    <location netOffset="-11548205.96,-142774.42" convBoundary="0.00,0.00,2480.07,2769.88" origBoundary="103.675226,1.265289,103.839792,1.348183" projParameter="-"/>

    <type id="highway.bridleway" priority="1" numLanes="1" speed="2.78" allow="pedestrian" oneway="1" width="2.00"/>
    <type id="highway.bus_guideway" priority="1" numLanes="1" speed="27.78" allow="bus" oneway="1"/>
    <type id="highway.cycleway" priority="1" numLanes="1" speed="8.33" allow="bicycle" oneway="0" width="1.00"/>
    <type id="highway.footway" priority="1" numLanes="1" speed="2.78" allow="pedestrian" oneway="1" width="2.00"/>
    <type id="highway.ford" priority="1" numLanes="1" speed="2.78" allow="army" oneway="0"/>
    <type id="highway.living_street" priority="2" numLanes="1" speed="2.78" disallow="tram rail_urban rail rail_electric rail_fast ship" oneway="0"/>
    <type id="highway.motorway" priority="14" numLanes="2" speed="39.44" allow="private emergency authority army vip passenger hov taxi bus coach delivery truck trailer motorcycle evehicle custom1 custom2" oneway="1"/>
    <type id="highway.motorway_link" priority="9" numLanes="1" speed="22.22" allow="private emergency authority army vip passenger hov taxi bus coach delivery truck trailer motorcycle evehicle custom1 custom2" oneway="1"/>
    <type id="highway.path" priority="1" numLanes="1" speed="2.78" allow="pedestrian bicycle" oneway="1" width="2.00"/>
    <type id="highway.pedestrian" priority="1" numLanes="1" speed="2.78" allow="pedestrian" oneway="1" width="2.00"/>
    <type id="highway.primary" priority="12" numLanes="2" speed="27.78" disallow="tram rail_urban rail rail_electric rail_fast ship" oneway="0"/>
    <type id="highway.primary_link" priority="7" numLanes="1" speed="22.22" disallow="tram rail_urban rail rail_electric rail_fast ship" oneway="0"/>
    <type id="highway.raceway" priority="15" numLanes="2" speed="83.33" allow="vip" oneway="0"/>
    <type id="highway.residential" priority="3" numLanes="1" speed="13.89" disallow="tram rail_urban rail rail_electric rail_fast ship" oneway="0"/>
    <type id="highway.secondary" priority="11" numLanes="2" speed="27.78" disallow="tram rail_urban rail rail_electric rail_fast ship" oneway="0"/>
    <type id="highway.secondary_link" priority="6" numLanes="1" speed="22.22" disallow="tram rail_urban rail rail_electric rail_fast ship" oneway="0"/>
    <type id="highway.service" priority="1" numLanes="1" speed="5.56" allow="pedestrian delivery bicycle" oneway="0"/>
    <type id="highway.stairs" priority="1" numLanes="1" speed="1.39" allow="pedestrian" oneway="1" width="2.00"/>
    <type id="highway.step" priority="1" numLanes="1" speed="1.39" allow="pedestrian" oneway="1" width="2.00"/>
    <type id="highway.steps" priority="1" numLanes="1" speed="1.39" allow="pedestrian" oneway="1" width="2.00"/>
    <type id="highway.tertiary" priority="10" numLanes="1" speed="22.22" disallow="tram rail_urban rail rail_electric rail_fast ship" oneway="0"/>
    <type id="highway.tertiary_link" priority="5" numLanes="1" speed="22.22" disallow="tram rail_urban rail rail_electric rail_fast ship" oneway="0"/>
    <type id="highway.track" priority="1" numLanes="1" speed="5.56" disallow="tram rail_urban rail rail_electric rail_fast ship" oneway="0"/>
    <type id="highway.trunk" priority="13" numLanes="2" speed="27.78" disallow="pedestrian bicycle tram rail_urban rail rail_electric rail_fast ship" oneway="0"/>
    <type id="highway.trunk_link" priority="8" numLanes="1" speed="22.22" disallow="pedestrian bicycle tram rail_urban rail rail_electric rail_fast ship" oneway="0"/>
    <type id="highway.unclassified" priority="4" numLanes="1" speed="13.89" disallow="tram rail_urban rail rail_electric rail_fast ship" oneway="0"/>
    <type id="highway.unsurfaced" priority="1" numLanes="1" speed="8.33" disallow="tram rail_urban rail rail_electric rail_fast ship" oneway="0"/>
    <type id="railway.highspeed" priority="21" numLanes="1" speed="69.44" allow="rail_fast" oneway="1"/>
    <type id="railway.light_rail" priority="19" numLanes="1" speed="27.78" allow="rail_urban" oneway="1"/>
    <type id="railway.preserved" priority="16" numLanes="1" speed="27.78" allow="rail" oneway="1"/>
    <type id="railway.rail" priority="20" numLanes="1" speed="44.44" allow="rail" oneway="1"/>
    <type id="railway.subway" priority="18" numLanes="1" speed="27.78" allow="rail_urban" oneway="1"/>
    <type id="railway.tram" priority="17" numLanes="1" speed="13.89" allow="tram" oneway="1"/>

    <edge id=":1199539758_0" function="internal">
        <lane id=":1199539758_0_0" index="0" disallow="tram rail_urban rail rail_electric rail_fast ship" speed="4.08" length="5.84" width="4.00" shape="833.94,798.42 835.11,797.05 835.33,795.95 834.57,795.12 832.86,794.56"/>
    </edge>
    <edge id=":1199539763_0" function="internal">
        <lane id=":1199539763_0_0" index="0" disallow="tram rail_urban rail rail_electric rail_fast ship" speed="4.08" length="5.84" width="4.00" shape="603.75,803.84 602.63,805.26 602.47,806.36 603.26,807.16 604.99,807.64"/>
    </edge>
    <edge id=":1199539784_0" function="internal">
        <lane id=":1199539784_0_0" index="0" disallow="tram rail_urban rail rail_electric rail_fast ship" speed="6.46" length="9.78" width="4.00" shape="650.96,788.41 648.25,788.87 646.19,788.30 644.77,786.69 644.01,784.04"/>
    </edge>
    <edge id=":1199539784_1" function="internal">
        <lane id=":1199539784_1_0" index="0" disallow="tram rail_urban rail rail_electric rail_fast ship" speed="13.89" length="16.12" width="4.00" shape="650.96,788.41 635.63,793.39"/>
    </edge>
    <edge id=":1199539784_2" function="internal">
        <lane id=":1199539784_2_0" index="0" disallow="tram rail_urban rail rail_electric rail_fast ship" speed="13.89" length="16.09" width="4.00" shape="636.88,797.19 652.19,792.22"/>
    </edge>
    <edge id=":1199539784_3" function="internal">
        <lane id=":1199539784_3_0" index="0" disallow="tram rail_urban rail rail_electric rail_fast ship" speed="9.25" length="6.69" width="4.00" shape="636.88,797.19 640.54,795.31 642.21,793.35"/>
    </edge>
    <edge id=":1199539784_6" function="internal">
        <lane id=":1199539784_6_0" index="0" disallow="tram rail_urban rail rail_electric rail_fast ship" speed="9.25" length="9.76" width="4.00" shape="642.21,793.35 642.94,792.50 644.10,788.74 644.01,784.04"/>
    </edge>
    <edge id=":1199539784_4" function="internal">
        <lane id=":1199539784_4_0" index="0" disallow="tram rail_urban rail rail_electric rail_fast ship" speed="7.62" length="10.81" width="4.00" shape="640.05,784.59 640.14,787.78 639.43,790.30 637.93,792.17 635.63,793.39"/>
    </edge>
    <edge id=":1199539784_5" function="internal">
        <lane id=":1199539784_5_0" index="0" disallow="tram rail_urban rail rail_electric rail_fast ship" speed="8.30" length="17.09" width="4.00" shape="640.05,784.59 641.38,789.21 643.85,792.02 647.45,793.02 652.19,792.22"/>
    </edge>
    <edge id=":1199539821_0" function="internal">
        <lane id=":1199539821_0_0" index="0" disallow="tram rail_urban rail rail_electric rail_fast ship" speed="13.89" length="16.26" width="4.00" shape="769.27,743.32 768.09,727.10"/>
    </edge>
    <edge id=":1199539821_1" function="internal">
        <lane id=":1199539821_1_0" index="0" disallow="tram rail_urban rail rail_electric rail_fast ship" speed="8.25" length="7.32" width="4.00" shape="769.27,743.32 768.25,738.52 766.78,736.62"/>
    </edge>
    <edge id=":1199539821_6" function="internal">
        <lane id=":1199539821_6_0" index="0" disallow="tram rail_urban rail rail_electric rail_fast ship" speed="8.25" length="10.01" width="4.00" shape="766.78,736.62 765.95,735.55 762.37,734.40 757.51,735.07"/>
    </edge>
    <edge id=":1199539821_2" function="internal">
        <lane id=":1199539821_2_0" index="0" disallow="tram rail_urban rail rail_electric rail_fast ship" speed="6.40" length="9.81" width="4.00" shape="758.62,738.92 761.37,738.53 763.40,739.19 764.70,740.87 765.28,743.59"/>
    </edge>
    <edge id=":1199539821_3" function="internal">
        <lane id=":1199539821_3_0" index="0" disallow="tram rail_urban rail rail_electric rail_fast ship" speed="9.37" length="16.58" width="4.00" shape="758.62,738.92 763.03,737.08 766.08,734.49 767.77,731.17 768.09,727.10"/>
    </edge>
    <edge id=":1199539821_4" function="internal">
        <lane id=":1199539821_4_0" index="0" disallow="tram rail_urban rail rail_electric rail_fast ship" speed="7.76" length="11.04" width="4.00" shape="764.10,727.42 763.86,730.01 762.68,732.14 760.57,733.83 757.51,735.07"/>
    </edge>
    <edge id=":1199539821_5" function="internal">
        <lane id=":1199539821_5_0" index="0" disallow="tram rail_urban rail rail_electric rail_fast ship" speed="13.89" length="16.21" width="4.00" shape="764.10,727.42 765.28,743.59"/>
    </edge>
    <edge id=":1201719372_0" function="internal">
        <lane id=":1201719372_0_0" index="0" disallow="tram rail_urban rail rail_electric rail_fast ship" speed="4.08" length="5.84" width="4.00" shape="470.88,937.26 472.61,937.77 473.70,937.52 474.15,936.49 473.96,934.70"/>
    </edge>
    <edge id=":1201719386_0" function="internal">
        <lane id=":1201719386_0_0" index="0" disallow="tram rail_urban rail rail_electric rail_fast ship" speed="4.08" length="5.84" width="4.00" shape="874.23,830.51 875.47,831.82 876.54,832.14 877.44,831.48 878.17,829.83"/>
    </edge>
    <edge id=":1201719402_0" function="internal">
        <lane id=":1201719402_0_0" index="0" disallow="tram rail_urban rail rail_electric rail_fast ship" speed="4.08" length="5.84" width="4.00" shape="528.15,897.97 529.89,898.44 530.97,898.15 531.39,897.12 531.15,895.33"/>
    </edge>
    <edge id=":1201732596_0" function="internal">
        <lane id=":1201732596_0_0" index="0" disallow="tram rail_urban rail rail_electric rail_fast ship" speed="7.48" length="12.26" width="4.00" shape="169.21,1206.24 165.92,1206.96 163.68,1208.57 162.48,1211.06 162.34,1214.43"/>
    </edge>
    <edge id=":1201732596_1" function="internal">
        <lane id=":1201732596_1_0" index="0" disallow="tram rail_urban rail rail_electric rail_fast ship" speed="6.59" length="9.20" width="4.00" shape="169.21,1206.24 167.66,1206.83 166.67,1208.32 166.22,1210.72 166.32,1214.03"/>
    </edge>
    <edge id=":1201738180_0" function="internal">
        <lane id=":1201738180_0_0" index="0" disallow="tram rail_urban rail rail_electric rail_fast ship" speed="4.08" length="5.84" width="4.00" shape="88.79,1383.98 87.37,1385.09 86.95,1386.12 87.52,1387.08 89.09,1387.96"/>
    </edge>
    <edge id=":1249297139_0" function="internal">
        <lane id=":1249297139_0_0" index="0" disallow="tram rail_urban rail rail_electric rail_fast ship" speed="13.89" length="8.64" width="4.00" shape="2179.02,1057.26 2177.54,1059.24 2175.72,1059.99 2173.86,1060.71 2172.24,1062.63"/>
        <lane id=":1249297139_0_1" index="1" disallow="tram rail_urban rail rail_electric rail_fast ship" speed="13.89" length="8.64" width="4.00" shape="2179.02,1057.26 2175.83,1064.38"/>
        <lane id=":1249297139_0_2" index="2" disallow="tram rail_urban rail rail_electric rail_fast ship" speed="13.89" length="8.64" width="4.00" shape="2179.02,1057.26 2178.65,1059.82 2179.32,1061.74 2179.95,1063.64 2179.43,1066.13"/>
    </edge>
    <edge id=":1249567541_0" function="internal">
        <lane id=":1249567541_0_0" index="0" disallow="tram rail_urban rail rail_electric rail_fast ship" speed="13.89" length="10.42" width="4.00" shape="2104.68,1199.29 2104.87,1196.31 2105.63,1194.36 2106.88,1192.52 2108.51,1189.86"/>
    </edge>
    <edge id=":1249567541_1" function="internal">
        <lane id=":1249567541_1_0" index="0" disallow="tram rail_urban rail rail_electric rail_fast ship" speed="13.89" length="11.59" width="4.00" shape="2104.68,1199.29 2104.27,1195.85 2103.76,1193.40 2103.78,1191.08 2104.97,1188.00"/>
    </edge>
    <edge id=":1249567541_2" function="internal">
        <lane id=":1249567541_2_0" index="0" disallow="tram rail_urban rail rail_electric rail_fast ship" speed="10.21" length="11.34" width="4.00" shape="2104.68,1199.29 2104.25,1195.57 2103.25,1192.47 2101.69,1190.01 2099.56,1188.18"/>
        <lane id=":1249567541_2_1" index="1" disallow="tram rail_urban rail rail_electric rail_fast ship" speed="9.09" length="11.34" width="4.00" shape="2100.69,1199.44 2100.34,1196.67 2099.50,1194.32 2098.19,1192.40 2096.40,1190.91"/>
    </edge>
    <edge id=":1249567542_0" function="internal">
        <lane id=":1249567542_0_0" index="0" disallow="tram rail_urban rail rail_electric rail_fast ship" speed="13.09" length="11.34" width="4.00" shape="2086.40,1221.36 2088.19,1218.90 2089.39,1217.07 2090.90,1215.70 2093.57,1214.61"/>
        <lane id=":1249567542_0_1" index="1" disallow="tram rail_urban rail rail_electric rail_fast ship" speed="13.89" length="11.34" width="4.00" shape="2083.33,1218.80 2085.58,1215.81 2087.16,1213.66 2089.12,1212.07 2092.47,1210.77"/>
    </edge>
    <edge id=":1249567542_2" function="internal">
        <lane id=":1249567542_2_0" index="0" disallow="tram rail_urban rail rail_electric rail_fast ship" speed="11.10" length="11.41" width="4.00" shape="2081.76,1213.40 2084.40,1214.66 2087.24,1215.27 2090.30,1215.26 2093.57,1214.61"/>
        <lane id=":1249567542_2_1" index="1" disallow="tram rail_urban rail rail_electric rail_fast ship" speed="10.37" length="11.41" width="4.00" shape="2082.32,1209.05 2084.87,1210.34 2087.41,1211.06 2089.94,1211.20 2092.47,1210.77"/>
    </edge>
    <edge id=":1249567544_0" function="internal">
        <lane id=":1249567544_0_0" index="0" disallow="tram rail_urban rail rail_electric rail_fast ship" speed="8.94" length="5.86" width="4.00" shape="2074.77,1205.43 2074.87,1207.11 2074.61,1208.27 2074.01,1209.35 2073.05,1210.81"/>
    </edge>
    <edge id=":1249567544_1" function="internal">
        <lane id=":1249567544_1_0" index="0" disallow="tram rail_urban rail rail_electric rail_fast ship" speed="13.89" length="5.57" width="4.00" shape="2074.77,1205.43 2075.21,1207.20 2075.92,1208.28 2076.87,1209.27 2078.02,1210.80"/>
        <lane id=":1249567544_1_1" index="1" disallow="tram rail_urban rail rail_electric rail_fast ship" speed="6.87" length="5.57" width="4.00" shape="2078.74,1204.91 2079.01,1205.92 2079.57,1206.86 2080.40,1207.74 2081.51,1208.55"/>
    </edge>
    <edge id=":1249567564_0" function="internal">
        <lane id=":1249567564_0_0" index="0" disallow="tram rail_urban rail rail_electric rail_fast ship" speed="13.89" length="7.83" width="4.00" shape="2175.70,1098.55 2177.32,1096.80 2178.76,1095.89 2180.13,1094.93 2181.54,1093.06"/>
        <lane id=":1249567564_0_1" index="1" disallow="tram rail_urban rail rail_electric rail_fast ship" speed="13.89" length="7.83" width="4.00" shape="2175.70,1098.55 2176.76,1096.52 2177.01,1094.91 2177.20,1093.25 2178.06,1091.10"/>
        <lane id=":1249567564_0_2" index="2" disallow="tram rail_urban rail rail_electric rail_fast ship" speed="13.89" length="7.83" width="4.00" shape="2172.44,1096.23 2173.42,1094.30 2173.63,1092.76 2173.77,1091.18 2174.57,1089.14"/>
    </edge>
    <edge id=":1249567568_0" function="internal">
        <lane id=":1249567568_0_0" index="0" disallow="tram rail_urban rail rail_electric rail_fast ship" speed="13.89" length="7.66" width="4.00" shape="2209.54,982.97 2211.09,981.52 2212.50,980.92 2213.96,980.37 2215.69,979.08"/>
        <lane id=":1249567568_0_1" index="1" disallow="tram rail_urban rail rail_electric rail_fast ship" speed="13.89" length="7.66" width="4.00" shape="2209.54,982.97 2210.67,981.06 2211.08,979.50 2211.55,978.01 2212.86,976.25"/>
        <lane id=":1249567568_0_2" index="2" disallow="tram rail_urban rail rail_electric rail_fast ship" speed="13.89" length="7.66" width="4.00" shape="2206.41,980.48 2207.62,978.46 2208.09,976.84 2208.63,975.27 2210.03,973.42"/>
    </edge>
    <edge id=":1249570061_0" function="internal">
        <lane id=":1249570061_0_0" index="0" disallow="tram rail_urban rail rail_electric rail_fast ship" speed="13.89" length="9.49" width="4.00" shape="1958.77,1337.11 1956.40,1338.65 1954.79,1339.72 1953.14,1340.70 1950.63,1341.98"/>
    </edge>
    <edge id=":1249570061_1" function="internal">
        <lane id=":1249570061_1_0" index="0" disallow="tram rail_urban rail rail_electric rail_fast ship" speed="8.49" length="9.75" width="4.00" shape="1959.89,1342.35 1957.78,1341.25 1955.53,1340.82 1953.15,1341.06 1950.63,1341.98"/>
    </edge>
    <edge id=":1345078953_0" function="internal">
        <lane id=":1345078953_0_0" index="0" disallow="pedestrian bicycle tram rail_urban rail rail_electric rail_fast ship" speed="13.53" length="10.03" width="4.00" shape="299.63,755.82 301.41,753.40 302.60,751.61 304.09,750.26 306.72,749.13"/>
    </edge>
    <edge id=":1345078953_1" function="internal">
        <lane id=":1345078953_1_0" index="0" disallow="pedestrian bicycle tram rail_urban rail rail_electric rail_fast ship" speed="22.22" length="12.07" width="4.00" shape="296.72,752.51 299.36,750.32 300.89,748.39 302.54,746.71 305.54,745.31"/>
        <lane id=":1345078953_1_1" index="1" disallow="pedestrian bicycle tram rail_urban rail rail_electric rail_fast ship" speed="22.22" length="12.07" width="4.00" shape="294.56,749.14 297.47,746.79 299.20,744.75 301.06,742.99 304.35,741.48"/>
    </edge>
    <edge id=":1345078970_0" function="internal">
        <lane id=":1345078970_0_0" index="0" disallow="pedestrian bicycle tram rail_urban rail rail_electric rail_fast ship" speed="22.22" length="8.30" width="4.00" shape="401.13,710.60 403.28,709.50 404.54,708.33 405.80,707.17 407.96,706.11"/>
        <lane id=":1345078970_0_1" index="1" disallow="pedestrian bicycle tram rail_urban rail rail_electric rail_fast ship" speed="22.22" length="8.30" width="4.00" shape="399.78,706.84 402.14,706.32 403.86,706.45 405.58,706.58 407.96,706.11"/>
        <lane id=":1345078970_0_2" index="2" disallow="pedestrian bicycle tram rail_urban rail rail_electric rail_fast ship" speed="22.22" length="8.30" width="4.00" shape="398.43,703.07 400.82,702.55 402.55,702.67 404.29,702.80 406.68,702.32"/>
    </edge>
    <edge id=":1345078977_0" function="internal">
        <lane id=":1345078977_0_0" index="0" disallow="pedestrian bicycle tram rail_urban rail rail_electric rail_fast ship" speed="20.83" length="7.98" width="4.00" shape="626.25,629.86 633.80,627.30"/>
        <lane id=":1345078977_0_1" index="1" disallow="pedestrian bicycle tram rail_urban rail rail_electric rail_fast ship" speed="20.83" length="7.98" width="4.00" shape="625.04,626.05 632.61,623.49"/>
    </edge>
    <edge id=":1345078977_2" function="internal">
        <lane id=":1345078977_2_0" index="0" disallow="pedestrian bicycle tram rail_urban rail rail_electric rail_fast ship" speed="19.44" length="8.33" width="4.00" shape="624.38,623.98 626.58,622.96 627.89,621.82 629.21,620.69 631.41,619.67"/>
        <lane id=":1345078977_2_1" index="1" disallow="pedestrian bicycle tram rail_urban rail rail_electric rail_fast ship" speed="19.44" length="8.33" width="4.00" shape="623.17,620.17 625.38,619.14 626.69,618.01 628.00,616.87 630.21,615.85"/>
    </edge>
    <edge id=":1345078981_0" function="internal">
        <lane id=":1345078981_0_0" index="0" disallow="tram rail_urban rail rail_electric rail_fast ship" speed="15.28" length="20.44" width="4.00" shape="221.51,713.40 217.25,708.95 213.85,705.92 211.66,702.49 211.08,696.86"/>
    </edge>
    <edge id=":1345078981_1" function="internal">
        <lane id=":1345078981_1_0" index="0" disallow="tram rail_urban rail rail_electric rail_fast ship" speed="15.28" length="22.23" width="4.00" shape="221.51,713.40 216.42,708.93 211.63,706.41 208.16,703.56 207.02,698.12"/>
    </edge>
    <edge id=":1345078981_2" function="internal">
        <lane id=":1345078981_2_0" index="0" disallow="tram rail_urban rail rail_electric rail_fast ship" speed="16.67" length="21.02" width="4.00" shape="218.37,715.88 213.54,710.79 209.08,707.37 205.26,704.76 202.37,702.12"/>
        <lane id=":1345078981_2_1" index="1" disallow="tram rail_urban rail rail_electric rail_fast ship" speed="16.67" length="21.02" width="4.00" shape="215.23,718.36 202.37,702.12"/>
        <lane id=":1345078981_2_2" index="2" disallow="tram rail_urban rail rail_electric rail_fast ship" speed="16.67" length="21.02" width="4.00" shape="212.09,720.84 208.25,714.98 205.94,709.85 204.28,705.54 202.37,702.12"/>
    </edge>
    <edge id=":1345079001_0" function="internal">
        <lane id=":1345079001_0_0" index="0" disallow="tram rail_urban rail rail_electric rail_fast ship" speed="27.78" length="22.75" width="4.00" shape="231.34,641.44 211.64,652.75"/>
        <lane id=":1345079001_0_1" index="1" disallow="tram rail_urban rail rail_electric rail_fast ship" speed="27.78" length="22.75" width="4.00" shape="233.41,644.86 213.66,656.20"/>
    </edge>
    <edge id=":1345079001_2" function="internal">
        <lane id=":1345079001_2_0" index="0" disallow="tram rail_urban rail rail_electric rail_fast ship" speed="20.84" length="22.30" width="4.00" shape="221.68,666.49 225.84,661.82 228.97,658.30 232.42,655.17 237.55,651.70"/>
        <lane id=":1345079001_2_1" index="1" disallow="tram rail_urban rail rail_electric rail_fast ship" speed="20.84" length="22.30" width="4.00" shape="218.83,663.68 223.11,658.92 226.50,655.18 230.23,651.84 235.48,648.28"/>
    </edge>
    <edge id=":1345079001_4" function="internal">
        <lane id=":1345079001_4_0" index="0" disallow="tram rail_urban rail rail_electric rail_fast ship" speed="5.69" length="12.63" width="4.00" shape="218.83,663.68 220.09,660.60 219.17,657.60 216.79,655.77 213.66,656.20"/>
    </edge>
    <edge id=":1345079001_5" function="internal">
        <lane id=":1345079001_5_0" index="0" disallow="tram rail_urban rail rail_electric rail_fast ship" speed="27.78" length="22.84" width="4.00" shape="215.67,659.65 235.48,648.28"/>
    </edge>
    <edge id=":1345079015_0" function="internal">
        <lane id=":1345079015_0_0" index="0" disallow="pedestrian bicycle tram rail_urban rail rail_electric rail_fast ship" speed="22.22" length="8.25" width="4.00" shape="309.57,699.98 307.23,700.76 305.47,700.86 303.72,700.99 301.42,701.87"/>
        <lane id=":1345079015_0_1" index="1" disallow="pedestrian bicycle tram rail_urban rail rail_electric rail_fast ship" speed="22.22" length="8.25" width="4.00" shape="309.57,699.98 307.53,701.30 306.41,702.62 305.31,703.97 303.32,705.40"/>
        <lane id=":1345079015_0_2" index="2" disallow="pedestrian bicycle tram rail_urban rail rail_electric rail_fast ship" speed="22.22" length="8.25" width="4.00" shape="311.30,703.58 309.31,704.89 308.22,706.19 307.15,707.52 305.21,708.92"/>
        <lane id=":1345079015_0_3" index="3" disallow="pedestrian bicycle tram rail_urban rail rail_electric rail_fast ship" speed="22.22" length="8.25" width="4.00" shape="313.03,707.19 311.09,708.47 310.03,709.76 309.00,711.07 307.10,712.44"/>
    </edge>
    <edge id=":1345086710_0" function="internal">
        <lane id=":1345086710_0_0" index="0" disallow="tram rail_urban rail rail_electric rail_fast ship" speed="16.67" length="8.32" width="4.00" shape="361.24,823.36 358.92,824.08 357.19,824.12 355.46,824.15 353.14,824.87"/>
        <lane id=":1345086710_0_1" index="1" disallow="tram rail_urban rail rail_electric rail_fast ship" speed="16.67" length="8.32" width="4.00" shape="361.24,823.36 359.18,824.65 358.02,825.94 356.86,827.22 354.80,828.51"/>
        <lane id=":1345086710_0_2" index="2" disallow="tram rail_urban rail rail_electric rail_fast ship" speed="16.67" length="8.32" width="4.00" shape="362.91,827.00 360.85,828.29 359.69,829.58 358.52,830.86 356.46,832.15"/>
    </edge>
    <edge id=":1345103809_0" function="internal">
        <lane id=":1345103809_0_0" index="0" disallow="tram rail_urban rail rail_electric rail_fast ship" speed="13.89" length="13.34" width="4.00" shape="711.42,1813.62 707.99,1814.21 704.88,1814.86 701.79,1815.61 698.41,1816.50"/>
    </edge>
    <edge id=":1345103809_1" function="internal">
        <lane id=":1345103809_1_0" index="0" disallow="tram rail_urban rail rail_electric rail_fast ship" speed="5.88" length="4.85" width="4.00" shape="702.91,1821.88 703.94,1818.73 703.63,1817.22"/>
    </edge>
    <edge id=":1345103809_2" function="internal">
        <lane id=":1345103809_2_0" index="0" disallow="tram rail_urban rail rail_electric rail_fast ship" speed="5.88" length="5.75" width="4.00" shape="703.63,1817.22 703.54,1816.78 701.69,1816.04 698.41,1816.50"/>
    </edge>
    <edge id=":1345143345_0" function="internal">
        <lane id=":1345143345_0_0" index="0" disallow="tram rail_urban rail rail_electric rail_fast ship" speed="13.89" length="8.25" width="4.00" shape="792.95,1363.81 794.55,1365.62 796.00,1366.53 797.49,1367.42 799.16,1369.18"/>
        <lane id=":1345143345_0_1" index="1" disallow="tram rail_urban rail rail_electric rail_fast ship" speed="13.89" length="8.25" width="4.00" shape="796.27,1361.58 797.34,1363.73 797.66,1365.41 798.01,1367.08 799.16,1369.18"/>
    </edge>
    <edge id=":1358272512_0" function="internal">
        <lane id=":1358272512_0_0" index="0" disallow="tram rail_urban rail rail_electric rail_fast ship" speed="8.97" length="16.45" width="4.00" shape="1019.06,1613.82 1014.29,1616.62 1010.23,1617.85 1006.85,1617.51 1004.18,1615.61"/>
    </edge>
    <edge id=":1358272512_1" function="internal">
        <lane id=":1358272512_1_0" index="0" disallow="tram rail_urban rail rail_electric rail_fast ship" speed="13.89" length="19.97" width="4.00" shape="1019.06,1613.82 1014.40,1617.16 1011.09,1619.33 1007.50,1620.90 1002.03,1622.44"/>
        <lane id=":1358272512_1_1" index="1" disallow="tram rail_urban rail rail_electric rail_fast ship" speed="13.89" length="19.97" width="4.00" shape="1021.35,1617.10 1016.15,1620.13 1012.10,1621.67 1008.11,1623.30 1003.10,1626.58"/>
    </edge>
    <edge id=":1358272512_3" function="internal">
        <lane id=":1358272512_3_0" index="0" disallow="tram rail_urban rail rail_electric rail_fast ship" speed="13.89" length="20.29" width="4.00" shape="1022.28,1624.55 1016.19,1621.68 1011.15,1619.72 1007.15,1617.93 1004.18,1615.61"/>
    </edge>
    <edge id=":1358272512_4" function="internal">
        <lane id=":1358272512_4_0" index="0" disallow="tram rail_urban rail rail_electric rail_fast ship" speed="13.89" length="19.80" width="4.00" shape="1022.28,1624.55 1016.76,1621.88 1012.49,1620.82 1008.05,1621.10 1002.03,1622.44"/>
        <lane id=":1358272512_4_1" index="1" disallow="tram rail_urban rail rail_electric rail_fast ship" speed="10.88" length="19.80" width="4.00" shape="1020.51,1628.14 1015.10,1625.72 1010.40,1624.65 1006.40,1624.94 1003.10,1626.58"/>
    </edge>
    <edge id=":1358272531_0" function="internal">
        <lane id=":1358272531_0_0" index="0" disallow="tram rail_urban rail rail_electric rail_fast ship" speed="13.89" length="10.03" width="4.00" shape="1028.74,1641.68 1028.67,1638.70 1028.34,1636.60 1028.32,1634.57 1029.15,1631.80"/>
    </edge>
    <edge id=":1358272531_1" function="internal">
        <lane id=":1358272531_1_0" index="0" disallow="tram rail_urban rail rail_electric rail_fast ship" speed="13.81" length="15.70" width="4.00" shape="1028.74,1641.68 1028.92,1636.73 1028.42,1633.26 1026.84,1630.14 1023.78,1626.25"/>
        <lane id=":1358272531_1_1" index="1" disallow="tram rail_urban rail rail_electric rail_fast ship" speed="9.81" length="15.70" width="4.00" shape="1024.75,1641.43 1024.75,1636.61 1024.07,1632.81 1022.72,1630.01 1020.69,1628.23"/>
    </edge>
    <edge id=":1358272552_0" function="internal">
        <lane id=":1358272552_0_0" index="0" disallow="tram rail_urban rail rail_electric rail_fast ship" speed="8.63" length="6.09" width="4.00" shape="998.59,1655.79 999.73,1657.11 1000.24,1658.24 1000.38,1659.52 1000.43,1661.33"/>
    </edge>
    <edge id=":1358272552_1" function="internal">
        <lane id=":1358272552_1_0" index="0" disallow="tram rail_urban rail rail_electric rail_fast ship" speed="13.89" length="5.82" width="4.00" shape="998.59,1655.79 1000.07,1656.99 1001.30,1657.50 1002.67,1657.80 1004.55,1658.39"/>
        <lane id=":1358272552_1_1" index="1" disallow="tram rail_urban rail rail_electric rail_fast ship" speed="13.89" length="5.82" width="4.00" shape="1001.40,1652.95 1002.54,1653.82 1003.51,1654.12 1004.57,1654.26 1006.02,1654.67"/>
    </edge>
    <edge id=":1358272554_0" function="internal">
        <lane id=":1358272554_0_0" index="0" disallow="tram rail_urban rail rail_electric rail_fast ship" speed="12.76" length="10.90" width="4.00" shape="1014.84,1665.33 1015.46,1662.29 1016.20,1660.14 1017.50,1658.25 1019.79,1655.97"/>
    </edge>
    <edge id=":1358272554_1" function="internal">