<?xml version="1.0" encoding="UTF-8"?>

<!-- generated on Mon 29 Jul 2019 09:54:30 PM by Eclipse SUMO netedit Version v1_2_0+1287-e3a0083b72
<configuration xmlns:xsi="http://www.w3.org/2001/XMLSchema-instance" xsi:noNamespaceSchemaLocation="http://sumo.dlr.de/xsd/netconvertConfiguration.xsd">

    <input>
        <sumo-net-file value="/home/leeyiyuan/carla/Data/map2.net.xml"/>
    </input>

    <output>
        <output-file value="/home/leeyiyuan/carla/Data/map2.net.xml"/>
    </output>

    <processing>
        <geometry.max-grade.fix value="false"/>
        <offset.disable-normalization value="true"/>
        <lefthand value="false"/>
    </processing>

    <junctions>
        <no-turnarounds value="true"/>
        <junctions.corner-detail value="5"/>
        <junctions.limit-turn-speed value="5.5"/>
        <rectangular-lane-cut value="false"/>
    </junctions>

    <pedestrian>
        <walkingareas value="false"/>
    </pedestrian>

</configuration>
-->

<net version="1.3" junctionCornerDetail="5" limitTurnSpeed="5.50" xmlns:xsi="http://www.w3.org/2001/XMLSchema-instance" xsi:noNamespaceSchemaLocation="http://sumo.dlr.de/xsd/net_file.xsd">

    <location netOffset="-480767.92,-4434172.91" convBoundary="0.00,0.00,3857.81,3251.94" origBoundary="-105.227123,40.055187,-105.178499,40.086943" projParameter="+proj=utm +zone=13 +ellps=WGS84 +datum=WGS84 +units=m +no_defs"/>

    <type id="highway.bridleway" priority="1" numLanes="1" speed="2.78" allow="pedestrian" oneway="1" width="2.00"/>
    <type id="highway.bus_guideway" priority="1" numLanes="1" speed="27.78" allow="bus" oneway="1"/>
    <type id="highway.cycleway" priority="1" numLanes="1" speed="8.33" allow="bicycle" oneway="0" width="1.00"/>
    <type id="highway.footway" priority="1" numLanes="1" speed="2.78" allow="pedestrian" oneway="1" width="2.00"/>
    <type id="highway.ford" priority="1" numLanes="1" speed="2.78" allow="army" oneway="0"/>
    <type id="highway.living_street" priority="2" numLanes="1" speed="2.78" disallow="tram rail_urban rail rail_electric rail_fast ship" oneway="0"/>
    <type id="highway.motorway" priority="14" numLanes="2" speed="39.44" allow="private emergency authority army vip passenger hov taxi bus coach delivery truck trailer motorcycle evehicle custom1 custom2" oneway="1"/>
    <type id="highway.motorway_link" priority="9" numLanes="1" speed="22.22" allow="private emergency authority army vip passenger hov taxi bus coach delivery truck trailer motorcycle evehicle custom1 custom2" oneway="1"/>
    <type id="highway.path" priority="1" numLanes="1" speed="2.78" allow="pedestrian bicycle" oneway="1" width="2.00"/>
    <type id="highway.pedestrian" priority="1" numLanes="1" speed="2.78" allow="pedestrian" oneway="1" width="2.00"/>
    <type id="highway.primary" priority="12" numLanes="2" speed="27.78" disallow="tram rail_urban rail rail_electric rail_fast ship" oneway="0"/>
    <type id="highway.primary_link" priority="7" numLanes="1" speed="22.22" disallow="tram rail_urban rail rail_electric rail_fast ship" oneway="0"/>
    <type id="highway.raceway" priority="15" numLanes="2" speed="83.33" allow="vip" oneway="0"/>
    <type id="highway.residential" priority="3" numLanes="1" speed="13.89" disallow="tram rail_urban rail rail_electric rail_fast ship" oneway="0"/>
    <type id="highway.secondary" priority="11" numLanes="2" speed="27.78" disallow="tram rail_urban rail rail_electric rail_fast ship" oneway="0"/>
    <type id="highway.secondary_link" priority="6" numLanes="1" speed="22.22" disallow="tram rail_urban rail rail_electric rail_fast ship" oneway="0"/>
    <type id="highway.service" priority="1" numLanes="1" speed="5.56" allow="pedestrian delivery bicycle" oneway="0"/>
    <type id="highway.stairs" priority="1" numLanes="1" speed="1.39" allow="pedestrian" oneway="1" width="2.00"/>
    <type id="highway.step" priority="1" numLanes="1" speed="1.39" allow="pedestrian" oneway="1" width="2.00"/>
    <type id="highway.steps" priority="1" numLanes="1" speed="1.39" allow="pedestrian" oneway="1" width="2.00"/>
    <type id="highway.tertiary" priority="10" numLanes="1" speed="22.22" disallow="tram rail_urban rail rail_electric rail_fast ship" oneway="0"/>
    <type id="highway.tertiary_link" priority="5" numLanes="1" speed="22.22" disallow="tram rail_urban rail rail_electric rail_fast ship" oneway="0"/>
    <type id="highway.track" priority="1" numLanes="1" speed="5.56" disallow="tram rail_urban rail rail_electric rail_fast ship" oneway="0"/>
    <type id="highway.trunk" priority="13" numLanes="2" speed="27.78" disallow="pedestrian bicycle tram rail_urban rail rail_electric rail_fast ship" oneway="0"/>
    <type id="highway.trunk_link" priority="8" numLanes="1" speed="22.22" disallow="pedestrian bicycle tram rail_urban rail rail_electric rail_fast ship" oneway="0"/>
    <type id="highway.unclassified" priority="4" numLanes="1" speed="13.89" disallow="tram rail_urban rail rail_electric rail_fast ship" oneway="0"/>
    <type id="highway.unsurfaced" priority="1" numLanes="1" speed="8.33" disallow="tram rail_urban rail rail_electric rail_fast ship" oneway="0"/>
    <type id="railway.highspeed" priority="21" numLanes="1" speed="69.44" allow="rail_fast" oneway="1"/>
    <type id="railway.light_rail" priority="19" numLanes="1" speed="27.78" allow="rail_urban" oneway="1"/>
    <type id="railway.preserved" priority="16" numLanes="1" speed="27.78" allow="rail" oneway="1"/>
    <type id="railway.rail" priority="20" numLanes="1" speed="44.44" allow="rail" oneway="1"/>
    <type id="railway.subway" priority="18" numLanes="1" speed="27.78" allow="rail_urban" oneway="1"/>
    <type id="railway.tram" priority="17" numLanes="1" speed="13.89" allow="tram" oneway="1"/>

    <edge id=":1474355159_0" function="internal">
        <lane id=":1474355159_0_0" index="0" disallow="tram rail_urban rail rail_electric rail_fast ship" speed="14.53" length="15.60" shape="2449.46,1683.54 2433.86,1683.40"/>
    </edge>
    <edge id=":1474355159_1" function="internal">
        <lane id=":1474355159_1_0" index="0" disallow="tram rail_urban rail rail_electric rail_fast ship" speed="7.53" length="6.33" shape="2449.46,1683.54 2444.83,1682.75 2443.57,1681.71"/>
    </edge>
    <edge id=":1474355159_6" function="internal">
        <lane id=":1474355159_6_0" index="0" disallow="tram rail_urban rail rail_electric rail_fast ship" speed="7.53" length="10.17" shape="2443.57,1681.71 2442.27,1680.64 2441.79,1677.20 2443.37,1672.44"/>
    </edge>
    <edge id=":1474355159_2" function="internal">
        <lane id=":1474355159_2_0" index="0" disallow="tram rail_urban rail rail_electric rail_fast ship" speed="5.68" length="8.94" shape="2446.09,1674.17 2445.23,1676.76 2445.49,1678.60 2446.90,1679.70 2449.43,1680.05"/>
    </edge>
    <edge id=":1474355159_3" function="internal">
        <lane id=":1474355159_3_0" index="0" disallow="tram rail_urban rail rail_electric rail_fast ship" speed="9.48" length="16.17" shape="2446.09,1674.17 2443.67,1678.17 2440.83,1681.04 2437.56,1682.78 2433.86,1683.40"/>
    </edge>
    <edge id=":1474355159_4" function="internal">
        <lane id=":1474355159_4_0" index="0" disallow="tram rail_urban rail rail_electric rail_fast ship" speed="9.43" length="12.97" shape="2433.81,1680.20 2436.60,1679.69 2439.13,1678.22 2441.38,1675.80 2443.37,1672.44"/>
    </edge>
    <edge id=":1474355159_5" function="internal">
        <lane id=":1474355159_5_0" index="0" disallow="tram rail_urban rail rail_electric rail_fast ship" speed="14.53" length="15.62" shape="2433.81,1680.20 2449.43,1680.05"/>
    </edge>
    <edge id=":1474355164_0" function="internal">
        <lane id=":1474355164_0_0" index="0" disallow="tram rail_urban rail rail_electric rail_fast ship" speed="6.93" length="9.53" shape="2552.84,1691.78 2552.27,1689.14 2551.08,1687.24 2549.29,1686.07 2546.88,1685.65"/>
    </edge>
    <edge id=":1474355164_1" function="internal">
        <lane id=":1474355164_1_0" index="0" disallow="tram rail_urban rail rail_electric rail_fast ship" speed="6.34" length="9.04" shape="2561.26,1685.75 2558.78,1686.13 2557.08,1687.21 2556.16,1689.00 2556.02,1691.50"/>
    </edge>
    <edge id=":1474355164_2" function="internal">
        <lane id=":1474355164_2_0" index="0" disallow="tram rail_urban rail rail_electric rail_fast ship" speed="15.65" length="14.38" shape="2561.26,1685.75 2546.88,1685.65"/>
    </edge>
    <edge id=":176367851_0" function="internal">
        <lane id=":176367851_0_0" index="0" disallow="tram rail_urban rail rail_electric rail_fast ship" speed="3.65" length="4.67" shape="398.86,1332.03 397.51,1332.53 396.63,1332.38 396.22,1331.59 396.28,1330.15"/>
    </edge>
    <edge id=":176372775_0" function="internal">
        <lane id=":176372775_0_0" index="0" disallow="tram rail_urban rail rail_electric rail_fast ship" speed="3.69" length="4.66" shape="1595.83,2187.07 1594.99,2188.24 1594.17,2188.60 1593.39,2188.18 1592.64,2186.95"/>
    </edge>
    <edge id=":176377433_0" function="internal">
        <lane id=":176377433_0_0" index="0" disallow="tram rail_urban rail rail_electric rail_fast ship" speed="3.65" length="4.67" shape="2753.66,606.07 2755.06,605.74 2755.92,605.99 2756.23,606.82 2756.00,608.25"/>
    </edge>
    <edge id=":176388478_0" function="internal">
        <lane id=":176388478_0_0" index="0" disallow="tram rail_urban rail rail_electric rail_fast ship" speed="6.69" length="8.78" shape="2685.96,1872.25 2683.60,1871.78 2681.59,1872.11 2679.94,1873.25 2678.64,1875.19"/>
    </edge>
    <edge id=":176388478_1" function="internal">
        <lane id=":176388478_1_0" index="0" disallow="tram rail_urban rail rail_electric rail_fast ship" speed="8.01" length="13.60" shape="2685.96,1872.25 2682.66,1870.57 2680.63,1868.22 2679.87,1865.21 2680.36,1861.55"/>
    </edge>
    <edge id=":176388478_2" function="internal">
        <lane id=":176388478_2_0" index="0" disallow="tram rail_urban rail rail_electric rail_fast ship" speed="6.52" length="8.66" shape="2683.44,1862.42 2683.13,1864.75 2683.62,1866.66 2684.91,1868.16 2687.00,1869.23"/>
    </edge>
    <edge id=":176388478_3" function="internal">
        <lane id=":176388478_3_0" index="0" disallow="tram rail_urban rail rail_electric rail_fast ship" speed="8.94" length="13.66" shape="2683.44,1862.42 2682.42,1865.81 2681.34,1868.92 2680.11,1871.97 2678.64,1875.19"/>
    </edge>
    <edge id=":176388478_4" function="internal">
        <lane id=":176388478_4_0" index="0" disallow="tram rail_urban rail rail_electric rail_fast ship" speed="8.94" length="13.11" shape="2675.75,1873.80 2677.19,1870.66 2678.36,1867.79 2679.37,1864.86 2680.36,1861.55"/>
    </edge>
    <edge id=":176388478_5" function="internal">
        <lane id=":176388478_5_0" index="0" disallow="tram rail_urban rail rail_electric rail_fast ship" speed="8.16" length="13.53" shape="2675.75,1873.80 2677.76,1870.80 2680.31,1869.03 2683.39,1868.51 2687.00,1869.23"/>
    </edge>
    <edge id=":176388479_0" function="internal">
        <lane id=":176388479_0_0" index="0" disallow="tram rail_urban rail rail_electric rail_fast ship" speed="3.65" length="4.67" shape="2691.42,1870.76 2692.30,1871.91 2692.41,1872.79 2691.77,1873.42 2690.38,1873.78"/>
    </edge>
    <edge id=":176390865_0" function="internal">
        <lane id=":176390865_0_0" index="0" disallow="tram rail_urban rail rail_electric rail_fast ship" speed="3.65" length="4.67" shape="2448.39,2091.06 2449.05,2092.34 2449.01,2093.24 2448.27,2093.74 2446.83,2093.86"/>
    </edge>
    <edge id=":176392731_0" function="internal">
        <lane id=":176392731_0_0" index="0" disallow="tram rail_urban rail rail_electric rail_fast ship" speed="11.90" length="9.58" shape="1607.32,2001.64 1605.58,2003.90 1604.41,2005.56 1603.76,2007.38 1603.60,2010.14"/>
    </edge>
    <edge id=":176392731_1" function="internal">
        <lane id=":176392731_1_0" index="0" disallow="tram rail_urban rail rail_electric rail_fast ship" speed="22.22" length="9.51" shape="1603.53,2000.64 1603.60,2010.14"/>
        <lane id=":176392731_1_1" index="1" disallow="tram rail_urban rail rail_electric rail_fast ship" speed="22.22" length="9.51" shape="1600.33,2000.67 1600.40,2010.20"/>
    </edge>
    <edge id=":176394603_0" function="internal">
        <lane id=":176394603_0_0" index="0" disallow="tram rail_urban rail rail_electric rail_fast ship" speed="6.42" length="9.04" shape="2730.98,1299.45 2728.68,1298.51 2726.65,1298.56 2724.90,1299.59 2723.43,1301.60"/>
    </edge>
    <edge id=":176394603_1" function="internal">
        <lane id=":176394603_1_0" index="0" disallow="tram rail_urban rail rail_electric rail_fast ship" speed="13.89" length="14.38" shape="2730.98,1299.45 2718.64,1292.09"/>
    </edge>
    <edge id=":176394603_2" function="internal">
        <lane id=":176394603_2_0" index="0" disallow="tram rail_urban rail rail_electric rail_fast ship" speed="13.89" length="14.32" shape="2720.30,1289.35 2732.60,1296.69"/>
    </edge>
    <edge id=":176394603_3" function="internal">
        <lane id=":176394603_3_0" index="0" disallow="tram rail_urban rail rail_electric rail_fast ship" speed="8.19" length="5.74" shape="2720.30,1289.35 2723.23,1291.78 2724.13,1293.50"/>
    </edge>
    <edge id=":176394603_6" function="internal">
        <lane id=":176394603_6_0" index="0" disallow="tram rail_urban rail rail_electric rail_fast ship" speed="8.19" length="8.49" shape="2724.13,1293.50 2724.72,1294.63 2724.79,1297.90 2723.43,1301.60"/>
    </edge>
    <edge id=":176394603_4" function="internal">
        <lane id=":176394603_4_0" index="0" disallow="tram rail_urban rail rail_electric rail_fast ship" speed="6.73" length="9.29" shape="2720.61,1300.10 2721.51,1297.67 2721.48,1295.52 2720.52,1293.66 2718.64,1292.09"/>
    </edge>
    <edge id=":176394603_5" function="internal">
        <lane id=":176394603_5_0" index="0" disallow="tram rail_urban rail rail_electric rail_fast ship" speed="7.93" length="14.35" shape="2720.61,1300.10 2722.94,1296.90 2725.72,1295.27 2728.94,1295.20 2732.60,1296.69"/>
    </edge>
    <edge id=":176394625_0" function="internal">
        <lane id=":176394625_0_0" index="0" disallow="tram rail_urban rail rail_electric rail_fast ship" speed="8.94" length="12.58" shape="2698.56,1539.96 2698.01,1536.63 2697.38,1533.78 2696.55,1530.99 2695.41,1527.81"/>
    </edge>
    <edge id=":176394625_1" function="internal">
        <lane id=":176394625_1_0" index="0" disallow="tram rail_urban rail rail_electric rail_fast ship" speed="8.02" length="13.17" shape="2698.56,1539.96 2698.54,1536.39 2699.62,1533.57 2701.81,1531.49 2705.11,1530.15"/>
    </edge>
    <edge id=":176394625_2" function="internal">
        <lane id=":176394625_2_0" index="0" disallow="tram rail_urban rail rail_electric rail_fast ship" speed="6.53" length="8.38" shape="2705.90,1533.25 2703.80,1534.11 2702.40,1535.43 2701.71,1537.23 2701.73,1539.49"/>
    </edge>
    <edge id=":176394625_3" function="internal">
        <lane id=":176394625_3_0" index="0" disallow="tram rail_urban rail rail_electric rail_fast ship" speed="8.06" length="13.15" shape="2705.90,1533.25 2702.36,1533.64 2699.43,1532.86 2697.12,1530.92 2695.41,1527.81"/>
    </edge>
    <edge id=":176394625_4" function="internal">
        <lane id=":176394625_4_0" index="0" disallow="tram rail_urban rail rail_electric rail_fast ship" speed="6.57" length="8.41" shape="2698.41,1526.68 2699.49,1528.66 2700.98,1529.90 2702.85,1530.40 2705.11,1530.15"/>
    </edge>
    <edge id=":176394625_5" function="internal">
        <lane id=":176394625_5_0" index="0" disallow="tram rail_urban rail rail_electric rail_fast ship" speed="8.94" length="13.27" shape="2698.41,1526.68 2699.57,1529.96 2700.46,1532.98 2701.15,1536.06 2701.73,1539.49"/>
    </edge>
    <edge id=":176406574_0" function="internal">
        <lane id=":176406574_0_0" index="0" disallow="tram rail_urban rail rail_electric rail_fast ship" speed="13.89" length="11.75" shape="2287.57,1966.89 2285.86,1969.64 2284.65,1971.97 2283.70,1974.43 2282.79,1977.54"/>
    </edge>
    <edge id=":176406574_1" function="internal">
        <lane id=":176406574_1_0" index="0" disallow="tram rail_urban rail rail_electric rail_fast ship" speed="8.04" length="5.22" shape="2287.57,1966.89 2285.34,1969.46 2283.74,1970.32"/>
    </edge>
    <edge id=":176406574_6" function="internal">
        <lane id=":176406574_6_0" index="0" disallow="tram rail_urban rail rail_electric rail_fast ship" speed="8.04" length="7.45" shape="2283.74,1970.32 2282.76,1970.85 2279.84,1971.06 2276.58,1970.10"/>
    </edge>
    <edge id=":176406574_2" function="internal">
        <lane id=":176406574_2_0" index="0" disallow="tram rail_urban rail rail_electric rail_fast ship" speed="6.54" length="8.06" shape="2277.89,1967.18 2279.97,1967.80 2281.83,1967.66 2283.47,1966.77 2284.89,1965.14"/>
    </edge>
    <edge id=":176406574_3" function="internal">
        <lane id=":176406574_3_0" index="0" disallow="tram rail_urban rail rail_electric rail_fast ship" speed="8.06" length="12.66" shape="2277.89,1967.18 2280.78,1968.99 2282.55,1971.32 2283.22,1974.17 2282.79,1977.54"/>
    </edge>
    <edge id=":176406574_4" function="internal">
        <lane id=":176406574_4_0" index="0" disallow="tram rail_urban rail rail_electric rail_fast ship" speed="6.55" length="8.07" shape="2279.70,1976.70 2279.98,1974.55 2279.55,1972.74 2278.42,1971.25 2276.58,1970.10"/>
    </edge>
    <edge id=":176406574_5" function="internal">
        <lane id=":176406574_5_0" index="0" disallow="tram rail_urban rail rail_electric rail_fast ship" speed="13.89" length="12.74" shape="2279.70,1976.70 2280.68,1973.45 2281.76,1970.68 2283.11,1968.03 2284.89,1965.14"/>
    </edge>
    <edge id=":176406592_0" function="internal">
        <lane id=":176406592_0_0" index="0" disallow="tram rail_urban rail rail_electric rail_fast ship" speed="13.89" length="14.23" shape="2163.78,2048.17 2149.55,2048.15"/>
    </edge>
    <edge id=":176406592_1" function="internal">
        <lane id=":176406592_1_0" index="0" disallow="tram rail_urban rail rail_electric rail_fast ship" speed="8.01" length="5.81" shape="2163.78,2048.17 2159.97,2047.58 2158.30,2046.56"/>
    </edge>
    <edge id=":176406592_6" function="internal">
        <lane id=":176406592_6_0" index="0" disallow="tram rail_urban rail rail_electric rail_fast ship" speed="8.01" length="8.29" shape="2158.30,2046.56 2157.25,2045.92 2155.62,2043.17 2155.07,2039.35"/>
    </edge>
    <edge id=":176406592_2" function="internal">
        <lane id=":176406592_2_0" index="0" disallow="tram rail_urban rail rail_electric rail_fast ship" speed="6.51" length="8.98" shape="2158.27,2039.36 2158.62,2041.79 2159.66,2043.54 2161.39,2044.60 2163.82,2044.97"/>
    </edge>
    <edge id=":176406592_3" function="internal">
        <lane id=":176406592_3_0" index="0" disallow="tram rail_urban rail rail_electric rail_fast ship" speed="8.00" length="14.10" shape="2158.27,2039.36 2157.73,2043.18 2156.09,2045.91 2153.36,2047.57 2149.55,2048.15"/>
    </edge>
    <edge id=":176406592_4" function="internal">
        <lane id=":176406592_4_0" index="0" disallow="tram rail_urban rail rail_electric rail_fast ship" speed="6.51" length="8.97" shape="2149.52,2044.95 2151.95,2044.58 2153.68,2043.53 2154.72,2041.79 2155.07,2039.35"/>
    </edge>
    <edge id=":176406592_5" function="internal">
        <lane id=":176406592_5_0" index="0" disallow="tram rail_urban rail rail_electric rail_fast ship" speed="13.89" length="14.30" shape="2149.52,2044.95 2163.82,2044.97"/>
    </edge>
    <edge id=":176408275_0" function="internal">
        <lane id=":176408275_0_0" index="0" disallow="tram rail_urban rail rail_electric rail_fast ship" speed="3.65" length="4.67" shape="1994.18,1865.74 1993.39,1866.94 1992.59,1867.35 1991.79,1866.96 1990.98,1865.76"/>
    </edge>
    <edge id=":176408277_0" function="internal">
        <lane id=":176408277_0_0" index="0" disallow="tram rail_urban rail rail_electric rail_fast ship" speed="6.59" length="9.16" shape="2000.19,1776.58 1997.72,1776.97 1995.96,1778.05 1994.89,1779.84 1994.53,1782.33"/>
    </edge>
    <edge id=":176408277_1" function="internal">
        <lane id=":176408277_1_0" index="0" disallow="tram rail_urban rail rail_electric rail_fast ship" speed="13.89" length="14.45" shape="2000.19,1776.58 1985.74,1776.73"/>
    </edge>
    <edge id=":176408277_2" function="internal">
        <lane id=":176408277_2_0" index="0" disallow="tram rail_urban rail rail_electric rail_fast ship" speed="8.01" length="5.94" shape="2000.19,1776.58 1996.33,1776.08 1994.56,1775.04"/>
    </edge>
    <edge id=":176408277_12" function="internal">
        <lane id=":176408277_12_0" index="0" disallow="tram rail_urban rail rail_electric rail_fast ship" speed="8.01" length="8.26" shape="1994.56,1775.04 1993.56,1774.46 1991.88,1771.73 1991.28,1767.88"/>
    </edge>
    <edge id=":176408277_3" function="internal">
        <lane id=":176408277_3_0" index="0" disallow="tram rail_urban rail rail_electric rail_fast ship" speed="6.51" length="9.04" shape="1994.48,1767.84 1994.86,1770.29 1995.93,1772.03 1997.69,1773.06 2000.15,1773.38"/>
    </edge>
    <edge id=":176408277_4" function="internal">
        <lane id=":176408277_4_0" index="0" disallow="tram rail_urban rail rail_electric rail_fast ship" speed="13.89" length="14.49" shape="1994.48,1767.84 1994.53,1782.33"/>
    </edge>
    <edge id=":176408277_5" function="internal">
        <lane id=":176408277_5_0" index="0" disallow="tram rail_urban rail rail_electric rail_fast ship" speed="8.00" length="14.24" shape="1994.48,1767.84 1993.97,1771.70 1992.35,1774.47 1989.60,1776.15 1985.74,1776.73"/>
    </edge>
    <edge id=":176408277_6" function="internal">
        <lane id=":176408277_6_0" index="0" disallow="tram rail_urban rail rail_electric rail_fast ship" speed="6.51" length="9.06" shape="1985.71,1773.53 1988.17,1773.16 1989.92,1772.10 1990.96,1770.33 1991.28,1767.88"/>
    </edge>
    <edge id=":176408277_7" function="internal">
        <lane id=":176408277_7_0" index="0" disallow="tram rail_urban rail rail_electric rail_fast ship" speed="13.89" length="14.44" shape="1985.71,1773.53 2000.15,1773.38"/>
    </edge>
    <edge id=":176408277_8" function="internal">
        <lane id=":176408277_8_0" index="0" disallow="tram rail_urban rail rail_electric rail_fast ship" speed="7.98" length="5.91" shape="1985.71,1773.53 1989.59,1774.05 1991.31,1775.08"/>
    </edge>
    <edge id=":176408277_13" function="internal">
        <lane id=":176408277_13_0" index="0" disallow="tram rail_urban rail rail_electric rail_fast ship" speed="7.98" length="8.33" shape="1991.31,1775.08 1992.35,1775.69 1994.00,1778.45 1994.53,1782.33"/>
    </edge>
    <edge id=":176408277_9" function="internal">
        <lane id=":176408277_9_0" index="0" disallow="tram rail_urban rail rail_electric rail_fast ship" speed="6.48" length="9.03" shape="1991.33,1782.31 1990.99,1779.85 1989.95,1778.10 1988.20,1777.06 1985.74,1776.73"/>
    </edge>
    <edge id=":176408277_10" function="internal">
        <lane id=":176408277_10_0" index="0" disallow="tram rail_urban rail rail_electric rail_fast ship" speed="13.89" length="14.43" shape="1991.33,1782.31 1991.28,1767.88"/>
    </edge>
    <edge id=":176408277_11" function="internal">
        <lane id=":176408277_11_0" index="0" disallow="tram rail_urban rail rail_electric rail_fast ship" speed="8.07" length="14.25" shape="1991.33,1782.31 1991.90,1778.44 1993.56,1775.67 1996.31,1773.98 2000.15,1773.38"/>
    </edge>
    <edge id=":176408279_0" function="internal">
        <lane id=":176408279_0_0" index="0" disallow="tram rail_urban rail rail_electric rail_fast ship" speed="8.32" length="14.93" shape="2003.11,1686.92 1999.10,1687.54 1996.19,1689.30 1994.40,1692.18 1993.71,1696.21"/>
    </edge>
    <edge id=":176408279_1" function="internal">
        <lane id=":176408279_1_0" index="0" disallow="tram rail_urban rail rail_electric rail_fast ship" speed="13.41" length="21.37" shape="2003.11,1686.92 1981.74,1687.25"/>
    </edge>
    <edge id=":176408279_2" function="internal">
        <lane id=":176408279_2_0" index="0" disallow="tram rail_urban rail rail_electric rail_fast ship" speed="9.68" length="7.75" shape="2003.11,1686.92 1997.74,1686.04 1995.88,1684.67"/>
    </edge>
    <edge id=":176408279_13" function="internal">
        <lane id=":176408279_13_0" index="0" disallow="tram rail_urban rail rail_electric rail_fast ship" speed="9.68" length="14.19" shape="1995.88,1684.67 1993.97,1683.25 1991.79,1678.56 1991.22,1671.95"/>
    </edge>
    <edge id=":176408279_3" function="internal">
        <lane id=":176408279_3_0" index="0" disallow="tram rail_urban rail rail_electric rail_fast ship" speed="7.11" length="11.35" shape="1997.61,1672.14 1997.86,1675.83 1998.84,1678.46 2000.57,1680.02 2003.03,1680.52"/>
    </edge>
    <edge id=":176408279_4" function="internal">
        <lane id=":176408279_4_0" index="0" disallow="tram rail_urban rail rail_electric rail_fast ship" speed="13.65" length="24.41" shape="1997.61,1672.14 1996.90,1679.42 1995.61,1686.05 1994.34,1691.74 1993.71,1696.21"/>
    </edge>
    <edge id=":176408279_5" function="internal">
        <lane id=":176408279_5_0" index="0" disallow="tram rail_urban rail rail_electric rail_fast ship" speed="10.08" length="12.41" shape="1994.41,1672.05 1993.46,1678.61 1991.03,1683.34 1990.66,1683.61"/>
    </edge>
    <edge id=":176408279_14" function="internal">
        <lane id=":176408279_14_0" index="0" disallow="tram rail_urban rail rail_electric rail_fast ship" speed="10.08" length="9.87" shape="1990.66,1683.61 1987.12,1686.22 1981.74,1687.25"/>
    </edge>
    <edge id=":176408279_6" function="internal">
        <lane id=":176408279_6_0" index="0" disallow="tram rail_urban rail rail_electric rail_fast ship" speed="7.66" length="12.43" shape="1981.56,1677.66 1985.72,1677.23 1988.72,1676.14 1990.55,1674.38 1991.22,1671.95"/>
    </edge>
    <edge id=":176408279_7" function="internal">
        <lane id=":176408279_7_0" index="0" disallow="tram rail_urban rail rail_electric rail_fast ship" speed="13.41" length="21.73" shape="1981.56,1677.66 1988.07,1678.03 1992.61,1679.06 1996.98,1680.10 2003.03,1680.52"/>
        <lane id=":176408279_7_1" index="1" disallow="tram rail_urban rail rail_electric rail_fast ship" speed="13.41" length="21.73" shape="1981.62,1680.85 1988.13,1681.23 1992.65,1682.26 1997.02,1683.30 2003.07,1683.72"/>
    </edge>
    <edge id=":176408279_9" function="internal">
        <lane id=":176408279_9_0" index="0" disallow="tram rail_urban rail rail_electric rail_fast ship" speed="9.18" length="7.06" shape="1981.68,1684.05 1987.08,1684.73 1988.47,1685.55"/>
    </edge>
    <edge id=":176408279_15" function="internal">
        <lane id=":176408279_15_0" index="0" disallow="tram rail_urban rail rail_electric rail_fast ship" speed="9.18" length="12.66" shape="1988.47,1685.55 1990.88,1686.97 1993.09,1690.80 1993.71,1696.21"/>
    </edge>
    <edge id=":176408279_10" function="internal">
        <lane id=":176408279_10_0" index="0" disallow="tram rail_urban rail rail_electric rail_fast ship" speed="6.41" length="9.04" shape="1987.31,1696.02 1987.03,1693.54 1986.02,1691.79 1984.27,1690.76 1981.80,1690.45"/>
    </edge>
    <edge id=":176408279_11" function="internal">
        <lane id=":176408279_11_0" index="0" disallow="tram rail_urban rail rail_electric rail_fast ship" speed="13.65" length="24.41" shape="1987.31,1696.02 1988.02,1688.75 1989.32,1682.11 1990.58,1676.42 1991.22,1671.95"/>
    </edge>
    <edge id=":176408279_12" function="internal">
        <lane id=":176408279_12_0" index="0" disallow="tram rail_urban rail rail_electric rail_fast ship" speed="9.53" length="9.84" shape="1990.51,1696.11 1991.43,1690.75 1993.75,1687.02"/>
    </edge>
    <edge id=":176408279_16" function="internal">
        <lane id=":176408279_16_0" index="0" disallow="tram rail_urban rail rail_electric rail_fast ship" speed="9.53" length="10.10" shape="1993.75,1687.02 1993.83,1686.89 1997.71,1684.55 2003.07,1683.72"/>
    </edge>
    <edge id=":176408281_0" function="internal">
        <lane id=":176408281_0_0" index="0" disallow="tram rail_urban rail rail_electric rail_fast ship" speed="13.41" length="14.43" shape="1991.19,1531.09 1991.23,1516.66"/>
    </edge>
    <edge id=":176408281_1" function="internal">
        <lane id=":176408281_1_0" index="0" disallow="tram rail_urban rail rail_electric rail_fast ship" speed="8.00" length="14.20" shape="1991.19,1531.09 1991.74,1527.23 1993.39,1524.49 1996.15,1522.84 2000.00,1522.30"/>
    </edge>
    <edge id=":176408281_2" function="internal">
        <lane id=":176408281_2_0" index="0" disallow="tram rail_urban rail rail_electric rail_fast ship" speed="6.50" length="9.03" shape="1999.99,1525.50 1997.54,1525.84 1995.79,1526.89 1994.74,1528.64 1994.39,1531.09"/>
    </edge>
    <edge id=":176408281_3" function="internal">
        <lane id=":176408281_3_0" index="0" disallow="tram rail_urban rail rail_electric rail_fast ship" speed="8.00" length="14.20" shape="1999.99,1525.50 1996.14,1524.94 1993.40,1523.28 1991.76,1520.52 1991.23,1516.66"/>
    </edge>
    <edge id=":176408281_4" function="internal">
        <lane id=":176408281_4_0" index="0" disallow="tram rail_urban rail rail_electric rail_fast ship" speed="6.50" length="9.03" shape="1994.43,1516.68 1994.77,1519.13 1995.81,1520.89 1997.55,1521.94 2000.00,1522.30"/>
    </edge>
    <edge id=":176408281_5" function="internal">
        <lane id=":176408281_5_0" index="0" disallow="tram rail_urban rail rail_electric rail_fast ship" speed="13.41" length="14.41" shape="1994.43,1516.68 1994.39,1531.09"/>
    </edge>
    <edge id=":176408283_0" function="internal">
        <lane id=":176408283_0_0" index="0" disallow="tram rail_urban rail rail_electric rail_fast ship" speed="6.54" length="9.12" shape="2000.79,1381.27 1998.34,1381.62 1996.58,1382.68 1995.51,1384.45 1995.15,1386.94"/>
    </edge>
    <edge id=":176408283_1" function="internal">