<?xml version="1.0" encoding="UTF-8"?>

<!-- generated on Sat 14 Sep 2019 01:38:49 PM by Eclipse SUMO netedit Version v1_2_0+1287-e3a0083b72
<configuration xmlns:xsi="http://www.w3.org/2001/XMLSchema-instance" xsi:noNamespaceSchemaLocation="http://sumo.dlr.de/xsd/netconvertConfiguration.xsd">

    <input>
        <sumo-net-file value="/home/leeyiyuan/carla/Data/meskel_square.net.xml"/>
    </input>

    <output>
        <output-file value="/home/leeyiyuan/carla/Data/meskel_square.net.xml"/>
    </output>

    <processing>
        <geometry.max-grade.fix value="false"/>
        <offset.disable-normalization value="true"/>
        <lefthand value="false"/>
    </processing>

    <junctions>
        <no-turnarounds value="true"/>
        <junctions.corner-detail value="5"/>
        <junctions.limit-turn-speed value="5.5"/>
        <rectangular-lane-cut value="false"/>
    </junctions>

    <pedestrian>
        <walkingareas value="false"/>
    </pedestrian>

</configuration>
-->

<net version="1.3" junctionCornerDetail="5" limitTurnSpeed="5.50" xmlns:xsi="http://www.w3.org/2001/XMLSchema-instance" xsi:noNamespaceSchemaLocation="http://sumo.dlr.de/xsd/net_file.xsd">

    <location netOffset="-4314645.11,-1006806.79" convBoundary="22.14,0.00,1489.42,1381.32" origBoundary="38.76009,9.00802,38.76603,9.01391" projParameter="+proj=merc +a=6378137 +b=6378137 +lat_ts=0.0 +lon_0=0.0 +x_0=0.0 +y_0=0 +k=1.0 +units=m +nadgrids=@null +wktext +no_defs"/>

    <type id="highway.bridleway" priority="1" numLanes="1" speed="2.78" allow="pedestrian" oneway="1" width="2.00"/>
    <type id="highway.bus_guideway" priority="1" numLanes="1" speed="27.78" allow="bus" oneway="1"/>
    <type id="highway.cycleway" priority="1" numLanes="1" speed="8.33" allow="bicycle" oneway="0" width="1.00"/>
    <type id="highway.footway" priority="1" numLanes="1" speed="2.78" allow="pedestrian" oneway="1" width="2.00"/>
    <type id="highway.ford" priority="1" numLanes="1" speed="2.78" allow="army" oneway="0"/>
    <type id="highway.living_street" priority="2" numLanes="1" speed="2.78" disallow="tram rail_urban rail rail_electric rail_fast ship" oneway="0"/>
    <type id="highway.motorway" priority="14" numLanes="2" speed="39.44" allow="private emergency authority army vip passenger hov taxi bus coach delivery truck trailer motorcycle evehicle custom1 custom2" oneway="1"/>
    <type id="highway.motorway_link" priority="9" numLanes="1" speed="22.22" allow="private emergency authority army vip passenger hov taxi bus coach delivery truck trailer motorcycle evehicle custom1 custom2" oneway="1"/>
    <type id="highway.path" priority="1" numLanes="1" speed="2.78" allow="pedestrian bicycle" oneway="1" width="2.00"/>
    <type id="highway.pedestrian" priority="1" numLanes="1" speed="2.78" allow="pedestrian" oneway="1" width="2.00"/>
    <type id="highway.primary" priority="12" numLanes="2" speed="27.78" disallow="tram rail_urban rail rail_electric rail_fast ship" oneway="0"/>
    <type id="highway.primary_link" priority="7" numLanes="1" speed="22.22" disallow="tram rail_urban rail rail_electric rail_fast ship" oneway="0"/>
    <type id="highway.raceway" priority="15" numLanes="2" speed="83.33" allow="vip" oneway="0"/>
    <type id="highway.residential" priority="3" numLanes="1" speed="13.89" disallow="tram rail_urban rail rail_electric rail_fast ship" oneway="0"/>
    <type id="highway.secondary" priority="11" numLanes="2" speed="27.78" disallow="tram rail_urban rail rail_electric rail_fast ship" oneway="0"/>
    <type id="highway.secondary_link" priority="6" numLanes="1" speed="22.22" disallow="tram rail_urban rail rail_electric rail_fast ship" oneway="0"/>
    <type id="highway.service" priority="1" numLanes="1" speed="5.56" allow="pedestrian delivery bicycle" oneway="0"/>
    <type id="highway.stairs" priority="1" numLanes="1" speed="1.39" allow="pedestrian" oneway="1" width="2.00"/>
    <type id="highway.step" priority="1" numLanes="1" speed="1.39" allow="pedestrian" oneway="1" width="2.00"/>
    <type id="highway.steps" priority="1" numLanes="1" speed="1.39" allow="pedestrian" oneway="1" width="2.00"/>
    <type id="highway.tertiary" priority="10" numLanes="1" speed="22.22" disallow="tram rail_urban rail rail_electric rail_fast ship" oneway="0"/>
    <type id="highway.tertiary_link" priority="5" numLanes="1" speed="22.22" disallow="tram rail_urban rail rail_electric rail_fast ship" oneway="0"/>
    <type id="highway.track" priority="1" numLanes="1" speed="5.56" disallow="tram rail_urban rail rail_electric rail_fast ship" oneway="0"/>
    <type id="highway.trunk" priority="13" numLanes="2" speed="27.78" disallow="pedestrian bicycle tram rail_urban rail rail_electric rail_fast ship" oneway="0"/>
    <type id="highway.trunk_link" priority="8" numLanes="1" speed="22.22" disallow="pedestrian bicycle tram rail_urban rail rail_electric rail_fast ship" oneway="0"/>
    <type id="highway.unclassified" priority="4" numLanes="1" speed="13.89" disallow="tram rail_urban rail rail_electric rail_fast ship" oneway="0"/>
    <type id="highway.unsurfaced" priority="1" numLanes="1" speed="8.33" disallow="tram rail_urban rail rail_electric rail_fast ship" oneway="0"/>
    <type id="railway.highspeed" priority="21" numLanes="1" speed="69.44" allow="rail_fast" oneway="1"/>
    <type id="railway.light_rail" priority="19" numLanes="1" speed="27.78" allow="rail_urban" oneway="1"/>
    <type id="railway.preserved" priority="16" numLanes="1" speed="27.78" allow="rail" oneway="1"/>
    <type id="railway.rail" priority="20" numLanes="1" speed="44.44" allow="rail" oneway="1"/>
    <type id="railway.subway" priority="18" numLanes="1" speed="27.78" allow="rail_urban" oneway="1"/>
    <type id="railway.tram" priority="17" numLanes="1" speed="13.89" allow="tram" oneway="1"/>

    <edge id=":1642556796_0" function="internal">
        <lane id=":1642556796_0_0" index="0" disallow="tram rail_urban rail rail_electric rail_fast ship" speed="27.78" length="8.22" width="4.00" shape="409.27,506.47 409.80,514.64"/>
        <lane id=":1642556796_0_1" index="1" disallow="tram rail_urban rail rail_electric rail_fast ship" speed="27.78" length="8.22" width="4.00" shape="405.28,506.71 405.81,514.92"/>
        <lane id=":1642556796_0_2" index="2" disallow="tram rail_urban rail rail_electric rail_fast ship" speed="27.78" length="8.22" width="4.00" shape="401.29,506.95 401.82,515.20"/>
    </edge>
    <edge id=":1642556796_3" function="internal">
        <lane id=":1642556796_3_0" index="0" disallow="tram rail_urban rail rail_electric rail_fast ship" speed="25.00" length="8.14" width="4.00" shape="413.13,506.24 413.79,514.36"/>
    </edge>
    <edge id=":1642556856_0" function="internal">
        <lane id=":1642556856_0_0" index="0" disallow="tram rail_urban rail rail_electric rail_fast ship" speed="25.00" length="8.73" width="4.00" shape="516.56,462.75 507.85,463.30"/>
    </edge>
    <edge id=":1642556856_1" function="internal">
        <lane id=":1642556856_1_0" index="0" disallow="tram rail_urban rail rail_electric rail_fast ship" speed="27.78" length="8.64" width="4.00" shape="516.26,458.77 513.57,458.96 511.73,459.04 509.89,459.03 507.20,458.95"/>
        <lane id=":1642556856_1_1" index="1" disallow="tram rail_urban rail rail_electric rail_fast ship" speed="27.78" length="8.64" width="4.00" shape="515.96,454.78 513.40,454.96 511.65,455.04 509.89,455.03 507.33,454.95"/>
        <lane id=":1642556856_1_2" index="2" disallow="tram rail_urban rail rail_electric rail_fast ship" speed="27.78" length="8.64" width="4.00" shape="515.66,450.79 513.23,450.96 511.57,451.04 509.90,451.03 507.46,450.96"/>
    </edge>
    <edge id=":221437411#2-AddedOnRampNode_0" function="internal">
        <lane id=":221437411#2-AddedOnRampNode_0_0" index="0" disallow="tram rail_urban rail rail_electric rail_fast ship" speed="27.78" length="8.25" width="4.00" shape="234.20,490.38 231.63,490.13 229.95,488.98 228.27,487.84 225.69,487.58"/>
        <lane id=":221437411#2-AddedOnRampNode_0_1" index="1" disallow="tram rail_urban rail rail_electric rail_fast ship" speed="27.78" length="8.25" width="4.00" shape="233.62,486.42 225.69,487.58"/>
        <lane id=":221437411#2-AddedOnRampNode_0_2" index="2" disallow="tram rail_urban rail rail_electric rail_fast ship" speed="27.78" length="8.25" width="4.00" shape="233.03,482.47 225.11,483.62"/>
        <lane id=":221437411#2-AddedOnRampNode_0_3" index="3" disallow="tram rail_urban rail rail_electric rail_fast ship" speed="27.78" length="8.25" width="4.00" shape="232.44,478.51 224.53,479.67"/>
        <lane id=":221437411#2-AddedOnRampNode_0_4" index="4" disallow="tram rail_urban rail rail_electric rail_fast ship" speed="27.78" length="8.25" width="4.00" shape="231.86,474.55 223.95,475.71"/>
    </edge>
    <edge id=":224859358#1-AddedOnRampNode_0" function="internal">
        <lane id=":224859358#1-AddedOnRampNode_0_0" index="0" disallow="tram rail_urban rail rail_electric rail_fast ship" speed="27.78" length="8.17" width="4.00" shape="204.68,450.35 207.25,450.61 208.92,451.75 210.60,452.89 213.16,453.15"/>
        <lane id=":224859358#1-AddedOnRampNode_0_1" index="1" disallow="tram rail_urban rail rail_electric rail_fast ship" speed="27.78" length="8.17" width="4.00" shape="205.26,454.31 213.16,453.15"/>
        <lane id=":224859358#1-AddedOnRampNode_0_2" index="2" disallow="tram rail_urban rail rail_electric rail_fast ship" speed="27.78" length="8.17" width="4.00" shape="205.84,458.27 213.75,457.10"/>
        <lane id=":224859358#1-AddedOnRampNode_0_3" index="3" disallow="tram rail_urban rail rail_electric rail_fast ship" speed="27.78" length="8.17" width="4.00" shape="206.42,462.23 214.33,461.06"/>
        <lane id=":224859358#1-AddedOnRampNode_0_4" index="4" disallow="tram rail_urban rail rail_electric rail_fast ship" speed="27.78" length="8.17" width="4.00" shape="207.00,466.18 214.91,465.02"/>
        <lane id=":224859358#1-AddedOnRampNode_0_5" index="5" disallow="tram rail_urban rail rail_electric rail_fast ship" speed="27.78" length="8.17" width="4.00" shape="207.58,470.14 215.50,468.97"/>
        <lane id=":224859358#1-AddedOnRampNode_0_6" index="6" disallow="tram rail_urban rail rail_electric rail_fast ship" speed="27.78" length="8.17" width="4.00" shape="208.15,474.10 216.08,472.93"/>
    </edge>
    <edge id=":224859359#1-AddedOnRampNode_0" function="internal">
        <lane id=":224859359#1-AddedOnRampNode_0_0" index="0" disallow="tram rail_urban rail rail_electric rail_fast ship" speed="27.78" length="8.16" width="4.00" shape="420.13,604.74 419.68,607.20 418.42,608.73 417.21,610.26 416.88,612.70"/>
        <lane id=":224859359#1-AddedOnRampNode_0_1" index="1" disallow="tram rail_urban rail rail_electric rail_fast ship" speed="27.78" length="8.16" width="4.00" shape="416.14,605.02 416.88,612.70"/>
        <lane id=":224859359#1-AddedOnRampNode_0_2" index="2" disallow="tram rail_urban rail rail_electric rail_fast ship" speed="27.78" length="8.16" width="4.00" shape="412.15,605.30 412.91,613.19"/>
        <lane id=":224859359#1-AddedOnRampNode_0_3" index="3" disallow="tram rail_urban rail rail_electric rail_fast ship" speed="27.78" length="8.16" width="4.00" shape="408.16,605.58 408.94,613.67"/>
    </edge>
    <edge id=":271900700_0" function="internal">
        <lane id=":271900700_0_0" index="0" disallow="tram rail_urban rail rail_electric rail_fast ship" speed="27.78" length="0.30" width="4.00" shape="516.95,340.19 516.73,340.42"/>
        <lane id=":271900700_0_1" index="1" disallow="tram rail_urban rail rail_electric rail_fast ship" speed="27.78" length="0.30" width="4.00" shape="513.99,337.50 513.78,337.72"/>
        <lane id=":271900700_0_2" index="2" disallow="tram rail_urban rail rail_electric rail_fast ship" speed="27.78" length="0.30" width="4.00" shape="511.03,334.80 510.83,335.02"/>
        <lane id=":271900700_0_3" index="3" disallow="tram rail_urban rail rail_electric rail_fast ship" speed="27.78" length="0.30" width="4.00" shape="508.08,332.11 507.88,332.32"/>
    </edge>
    <edge id=":271900701_0" function="internal">
        <lane id=":271900701_0_0" index="0" disallow="tram rail_urban rail rail_electric rail_fast ship" speed="27.78" length="0.29" width="4.00" shape="494.24,323.70 494.48,323.43"/>
        <lane id=":271900701_0_1" index="1" disallow="tram rail_urban rail rail_electric rail_fast ship" speed="27.78" length="0.29" width="4.00" shape="497.20,326.38 497.41,326.15"/>
        <lane id=":271900701_0_2" index="2" disallow="tram rail_urban rail rail_electric rail_fast ship" speed="27.78" length="0.29" width="4.00" shape="500.16,329.07 500.35,328.87"/>
        <lane id=":271900701_0_3" index="3" disallow="tram rail_urban rail rail_electric rail_fast ship" speed="27.78" length="0.29" width="4.00" shape="503.12,331.76 503.28,331.59"/>
    </edge>
    <edge id=":35977533-AddedOffRampNode_0" function="internal">
        <lane id=":35977533-AddedOffRampNode_0_0" index="0" disallow="tram rail_urban rail rail_electric rail_fast ship" speed="27.78" length="8.28" width="4.00" shape="395.44,610.98 394.52,608.60 392.97,607.33 391.41,606.05 390.44,603.68"/>
        <lane id=":35977533-AddedOffRampNode_0_1" index="1" disallow="tram rail_urban rail rail_electric rail_fast ship" speed="27.78" length="8.28" width="4.00" shape="395.44,610.98 394.40,603.12"/>
        <lane id=":35977533-AddedOffRampNode_0_2" index="2" disallow="tram rail_urban rail rail_electric rail_fast ship" speed="27.78" length="8.28" width="4.00" shape="399.41,610.49 398.36,602.56"/>
        <lane id=":35977533-AddedOffRampNode_0_3" index="3" disallow="tram rail_urban rail rail_electric rail_fast ship" speed="27.78" length="8.28" width="4.00" shape="403.38,610.01 402.32,602.00"/>
    </edge>
    <edge id=":420520082_0" function="internal">
        <lane id=":420520082_0_0" index="0" disallow="tram rail_urban rail rail_electric rail_fast ship" speed="18.05" length="0.93" width="4.00" shape="437.58,782.73 437.60,782.82 437.61,782.89 437.62,782.95 437.65,783.04"/>
        <lane id=":420520082_0_1" index="1" disallow="tram rail_urban rail rail_electric rail_fast ship" speed="18.05" length="0.93" width="4.00" shape="433.61,783.22 433.65,783.49 433.68,783.68 433.72,783.86 433.80,784.13"/>
        <lane id=":420520082_0_2" index="2" disallow="tram rail_urban rail rail_electric rail_fast ship" speed="18.05" length="0.93" width="4.00" shape="429.64,783.70 429.70,784.16 429.75,784.47 429.83,784.78 429.95,785.22"/>
    </edge>
    <edge id=":420520083_0" function="internal">
        <lane id=":420520083_0_0" index="0" disallow="tram rail_urban rail rail_electric rail_fast ship" speed="18.05" length="0.30" width="4.00" shape="412.14,747.48 412.10,747.18"/>
        <lane id=":420520083_0_1" index="1" disallow="tram rail_urban rail rail_electric rail_fast ship" speed="18.05" length="0.30" width="4.00" shape="416.11,746.99 416.07,746.69"/>
        <lane id=":420520083_0_2" index="2" disallow="tram rail_urban rail rail_electric rail_fast ship" speed="18.05" length="0.30" width="4.00" shape="420.08,746.49 420.04,746.21"/>
    </edge>
    <edge id=":5170734159_0" function="internal">
        <lane id=":5170734159_0_0" index="0" disallow="tram rail_urban rail rail_electric rail_fast ship" speed="25.00" length="7.98" width="4.00" shape="333.21,476.09 330.85,476.22 329.23,476.34 327.62,476.53 325.28,476.87"/>
    </edge>
    <edge id=":5170734159_1" function="internal">
        <lane id=":5170734159_1_0" index="0" disallow="tram rail_urban rail rail_electric rail_fast ship" speed="27.78" length="7.99" width="4.00" shape="332.58,471.76 324.69,472.92"/>
        <lane id=":5170734159_1_1" index="1" disallow="tram rail_urban rail rail_electric rail_fast ship" speed="27.78" length="7.99" width="4.00" shape="332.01,467.80 324.10,468.96"/>
        <lane id=":5170734159_1_2" index="2" disallow="tram rail_urban rail rail_electric rail_fast ship" speed="27.78" length="7.99" width="4.00" shape="331.43,463.84 323.52,465.00"/>
        <lane id=":5170734159_1_3" index="3" disallow="tram rail_urban rail rail_electric rail_fast ship" speed="27.78" length="7.99" width="4.00" shape="330.85,459.88 322.93,461.05"/>
    </edge>
    <edge id=":5170751727_0" function="internal">
        <lane id=":5170751727_0_0" index="0" disallow="tram rail_urban rail rail_electric rail_fast ship" speed="25.00" length="8.01" width="4.00" shape="103.40,465.15 111.33,464.01"/>
    </edge>
    <edge id=":5170751727_1" function="internal">
        <lane id=":5170751727_1_0" index="0" disallow="tram rail_urban rail rail_electric rail_fast ship" speed="27.78" length="8.00" width="4.00" shape="103.99,469.13 111.90,467.96"/>
        <lane id=":5170751727_1_1" index="1" disallow="tram rail_urban rail rail_electric rail_fast ship" speed="27.78" length="8.00" width="4.00" shape="104.57,473.09 112.48,471.92"/>
        <lane id=":5170751727_1_2" index="2" disallow="tram rail_urban rail rail_electric rail_fast ship" speed="27.78" length="8.00" width="4.00" shape="105.15,477.04 113.06,475.88"/>
        <lane id=":5170751727_1_3" index="3" disallow="tram rail_urban rail rail_electric rail_fast ship" speed="27.78" length="8.00" width="4.00" shape="105.73,481.00 113.64,479.84"/>
        <lane id=":5170751727_1_4" index="4" disallow="tram rail_urban rail rail_electric rail_fast ship" speed="27.78" length="8.00" width="4.00" shape="106.31,484.96 114.22,483.79"/>
        <lane id=":5170751727_1_5" index="5" disallow="tram rail_urban rail rail_electric rail_fast ship" speed="27.78" length="8.00" width="4.00" shape="106.89,488.92 114.80,487.75"/>
    </edge>
    <edge id=":5736089086_0" function="internal">
        <lane id=":5736089086_0_0" index="0" disallow="tram rail_urban rail rail_electric rail_fast ship" speed="25.00" length="8.39" width="4.00" shape="377.59,512.85 376.13,504.59"/>
    </edge>
    <edge id=":5736089086_1" function="internal">
        <lane id=":5736089086_1_0" index="0" disallow="tram rail_urban rail rail_electric rail_fast ship" speed="27.78" length="9.08" width="4.00" shape="381.55,512.29 381.18,509.62 380.97,507.79 380.86,505.95 380.76,503.26"/>
    </edge>
    <edge id=":5736089086_2" function="internal">
        <lane id=":5736089086_2_0" index="0" disallow="tram rail_urban rail rail_electric rail_fast ship" speed="27.78" length="8.65" width="4.00" shape="385.51,511.73 385.15,509.19 384.96,507.45 384.85,505.69 384.76,503.13"/>
    </edge>
    <edge id=":5736089086_3" function="internal">
        <lane id=":5736089086_3_0" index="0" disallow="tram rail_urban rail rail_electric rail_fast ship" speed="27.78" length="8.21" width="4.00" shape="389.47,511.17 389.13,508.76 388.95,507.10 388.84,505.43 388.76,503.00"/>
    </edge>
    <edge id=":678126832#0-AddedOffRampNode_0" function="internal">
        <lane id=":678126832#0-AddedOffRampNode_0_0" index="0" disallow="tram rail_urban rail rail_electric rail_fast ship" speed="27.78" length="8.31" width="4.00" shape="615.71,449.67 613.29,450.58 611.97,452.12 610.65,453.65 608.23,454.57"/>
        <lane id=":678126832#0-AddedOffRampNode_0_1" index="1" disallow="tram rail_urban rail rail_electric rail_fast ship" speed="27.78" length="8.31" width="4.00" shape="615.71,449.67 607.76,450.59"/>
        <lane id=":678126832#0-AddedOffRampNode_0_2" index="2" disallow="tram rail_urban rail rail_electric rail_fast ship" speed="27.78" length="8.31" width="4.00" shape="615.24,445.69 607.30,446.62"/>
        <lane id=":678126832#0-AddedOffRampNode_0_3" index="3" disallow="tram rail_urban rail rail_electric rail_fast ship" speed="27.78" length="8.31" width="4.00" shape="614.78,441.72 606.83,442.65"/>
    </edge>
    <edge id=":cluster_1642556745_2304667126_2304667130_2304667132_0" function="internal">
        <lane id=":cluster_1642556745_2304667126_2304667130_2304667132_0_0" index="0" disallow="tram rail_urban rail rail_electric rail_fast ship" speed="15.11" length="47.06" width="4.00" shape="443.32,457.42 428.84,459.96 418.26,465.03 411.60,472.65 408.85,482.79"/>
    </edge>
    <edge id=":cluster_1642556745_2304667126_2304667130_2304667132_1" function="internal">
        <lane id=":cluster_1642556745_2304667126_2304667130_2304667132_1_0" index="0" disallow="tram rail_urban rail rail_electric rail_fast ship" speed="27.78" length="68.02" width="4.00" shape="443.32,457.42 375.19,461.48"/>
        <lane id=":cluster_1642556745_2304667126_2304667130_2304667132_1_1" index="1" disallow="tram rail_urban rail rail_electric rail_fast ship" speed="27.78" length="68.02" width="4.00" shape="443.26,453.41 375.34,457.41"/>
        <lane id=":cluster_1642556745_2304667126_2304667130_2304667132_1_2" index="2" disallow="tram rail_urban rail rail_electric rail_fast ship" speed="27.78" length="68.02" width="4.00" shape="443.26,453.41 375.49,453.35"/>
    </edge>
    <edge id=":cluster_1642556745_2304667126_2304667130_2304667132_4" function="internal">
        <lane id=":cluster_1642556745_2304667126_2304667130_2304667132_4_0" index="0" disallow="tram rail_urban rail rail_electric rail_fast ship" speed="12.87" length="27.56" width="4.00" shape="443.26,453.41 427.12,450.13 420.00,441.63"/>
    </edge>
    <edge id=":cluster_1642556745_2304667126_2304667130_2304667132_5" function="internal">
        <lane id=":cluster_1642556745_2304667126_2304667130_2304667132_5_0" index="0" disallow="tram rail_urban rail rail_electric rail_fast ship" speed="11.85" length="20.96" width="4.00" shape="443.20,449.41 429.64,446.63 425.10,441.15"/>
    </edge>
    <edge id=":cluster_1642556745_2304667126_2304667130_2304667132_25" function="internal">
        <lane id=":cluster_1642556745_2304667126_2304667130_2304667132_25_0" index="0" disallow="tram rail_urban rail rail_electric rail_fast ship" speed="12.87" length="34.61" width="4.00" shape="420.00,441.63 418.24,439.54 417.55,424.99 425.98,409.87"/>
    </edge>
    <edge id=":cluster_1642556745_2304667126_2304667130_2304667132_26" function="internal">
        <lane id=":cluster_1642556745_2304667126_2304667130_2304667132_26_0" index="0" disallow="tram rail_urban rail rail_electric rail_fast ship" speed="11.85" length="31.39" width="4.00" shape="425.10,441.15 422.23,437.68 421.71,425.41 428.84,412.66"/>
    </edge>
    <edge id=":cluster_1642556745_2304667126_2304667130_2304667132_6" function="internal">
        <lane id=":cluster_1642556745_2304667126_2304667130_2304667132_6_0" index="0" disallow="tram rail_urban rail rail_electric rail_fast ship" speed="5.86" length="10.87" width="4.00" shape="440.17,423.74 438.13,426.54 437.91,428.51 439.50,429.67 442.92,430.02"/>
    </edge>
    <edge id=":cluster_1642556745_2304667126_2304667130_2304667132_7" function="internal">
        <lane id=":cluster_1642556745_2304667126_2304667130_2304667132_7_0" index="0" disallow="tram rail_urban rail rail_electric rail_fast ship" speed="27.78" length="69.19" width="4.00" shape="440.17,423.74 429.71,437.07 419.82,453.17 412.28,469.32 408.85,482.79"/>
        <lane id=":cluster_1642556745_2304667126_2304667130_2304667132_7_1" index="1" disallow="tram rail_urban rail rail_electric rail_fast ship" speed="27.78" length="69.19" width="4.00" shape="437.31,420.94 426.68,434.47 416.44,451.02 408.54,467.61 404.94,481.29"/>
        <lane id=":cluster_1642556745_2304667126_2304667130_2304667132_7_2" index="2" disallow="tram rail_urban rail rail_electric rail_fast ship" speed="27.78" length="69.19" width="4.00" shape="434.45,418.14 423.66,431.88 413.05,448.87 404.79,465.91 401.04,479.78"/>
    </edge>
    <edge id=":cluster_1642556745_2304667126_2304667130_2304667132_10" function="internal">
        <lane id=":cluster_1642556745_2304667126_2304667130_2304667132_10_0" index="0" disallow="tram rail_urban rail rail_electric rail_fast ship" speed="27.78" length="68.76" width="4.00" shape="431.59,415.35 419.89,427.08 405.88,438.78 390.70,448.26 375.49,453.35"/>
    </edge>
    <edge id=":cluster_1642556745_2304667126_2304667130_2304667132_11" function="internal">
        <lane id=":cluster_1642556745_2304667126_2304667130_2304667132_11_0" index="0" disallow="tram rail_urban rail rail_electric rail_fast ship" speed="26.39" length="51.85" width="4.00" shape="376.39,429.05 391.84,425.69 402.56,420.77 411.16,413.80 420.26,404.27"/>
    </edge>
    <edge id=":cluster_1642556745_2304667126_2304667130_2304667132_12" function="internal">
        <lane id=":cluster_1642556745_2304667126_2304667130_2304667132_12_0" index="0" disallow="tram rail_urban rail rail_electric rail_fast ship" speed="27.20" length="55.13" width="4.00" shape="376.24,433.12 392.84,429.45 404.52,424.11 413.78,416.77 423.12,407.07"/>
    </edge>
    <edge id=":cluster_1642556745_2304667126_2304667130_2304667132_13" function="internal">
        <lane id=":cluster_1642556745_2304667126_2304667130_2304667132_13_0" index="0" disallow="tram rail_urban rail rail_electric rail_fast ship" speed="27.78" length="58.41" width="4.00" shape="376.09,437.18 393.84,433.22 406.47,427.46 416.39,419.73 425.98,409.87"/>
    </edge>
    <edge id=":cluster_1642556745_2304667126_2304667130_2304667132_14" function="internal">
        <lane id=":cluster_1642556745_2304667126_2304667130_2304667132_14_0" index="0" disallow="tram rail_urban rail rail_electric rail_fast ship" speed="27.78" length="67.47" width="4.00" shape="376.09,437.18 396.94,434.25 415.01,432.04 430.33,430.62 442.92,430.02"/>
        <lane id=":cluster_1642556745_2304667126_2304667130_2304667132_14_1" index="1" disallow="tram rail_urban rail rail_electric rail_fast ship" speed="27.78" length="67.47" width="4.00" shape="375.93,441.25 396.82,438.30 414.96,436.08 430.35,434.63 442.98,434.02"/>
        <lane id=":cluster_1642556745_2304667126_2304667130_2304667132_14_2" index="2" disallow="tram rail_urban rail rail_electric rail_fast ship" speed="27.78" length="67.47" width="4.00" shape="375.78,445.31 396.70,442.36 414.92,440.11 430.38,438.64 443.04,438.01"/>
    </edge>
    <edge id=":cluster_1642556745_2304667126_2304667130_2304667132_17" function="internal">
        <lane id=":cluster_1642556745_2304667126_2304667130_2304667132_17_0" index="0" disallow="tram rail_urban rail rail_electric rail_fast ship" speed="14.48" length="25.32" width="4.00" shape="375.78,445.31 391.33,445.74 399.31,451.37"/>
    </edge>
    <edge id=":cluster_1642556745_2304667126_2304667130_2304667132_18" function="internal">
        <lane id=":cluster_1642556745_2304667126_2304667130_2304667132_18_0" index="0" disallow="tram rail_urban rail rail_electric rail_fast ship" speed="13.42" length="16.37" width="4.00" shape="375.63,449.38 389.01,449.69 391.49,451.36"/>
    </edge>
    <edge id=":cluster_1642556745_2304667126_2304667130_2304667132_27" function="internal">
        <lane id=":cluster_1642556745_2304667126_2304667130_2304667132_27_0" index="0" disallow="tram rail_urban rail rail_electric rail_fast ship" speed="14.48" length="31.27" width="4.00" shape="399.31,451.37 400.58,452.27 404.72,464.31 404.94,481.29"/>
    </edge>
    <edge id=":cluster_1642556745_2304667126_2304667130_2304667132_28" function="internal">
        <lane id=":cluster_1642556745_2304667126_2304667130_2304667132_28_0" index="0" disallow="tram rail_urban rail rail_electric rail_fast ship" speed="13.42" length="32.04" width="4.00" shape="391.49,451.36 397.08,455.14 400.78,465.32 401.04,479.78"/>
    </edge>
    <edge id=":cluster_1642556745_2304667126_2304667130_2304667132_19" function="internal">
        <lane id=":cluster_1642556745_2304667126_2304667130_2304667132_19_0" index="0" disallow="tram rail_urban rail rail_electric rail_fast ship" speed="6.48" length="10.15" width="4.00" shape="380.57,471.89 380.43,468.78 379.46,466.68 377.67,465.60 375.04,465.54"/>
    </edge>
    <edge id=":cluster_1642556745_2304667126_2304667130_2304667132_20" function="internal">
        <lane id=":cluster_1642556745_2304667126_2304667130_2304667132_20_0" index="0" disallow="tram rail_urban rail rail_electric rail_fast ship" speed="27.78" length="76.77" width="4.00" shape="380.57,471.89 385.34,457.07 395.73,437.96 408.47,418.91 420.26,404.27"/>
        <lane id=":cluster_1642556745_2304667126_2304667130_2304667132_20_1" index="1" disallow="tram rail_urban rail rail_electric rail_fast ship" speed="27.78" length="76.77" width="4.00" shape="384.47,473.39 389.07,458.78 399.11,440.11 411.49,421.51 423.12,407.07"/>
        <lane id=":cluster_1642556745_2304667126_2304667130_2304667132_20_2" index="2" disallow="tram rail_urban rail rail_electric rail_fast ship" speed="27.78" length="76.77" width="4.00" shape="388.36,474.89 392.81,460.48 402.49,442.26 414.52,424.10 425.98,409.87"/>
        <lane id=":cluster_1642556745_2304667126_2304667130_2304667132_20_3" index="3" disallow="tram rail_urban rail rail_electric rail_fast ship" speed="27.78" length="76.77" width="4.00" shape="388.36,474.89 393.26,460.92 403.92,443.66 416.93,426.46 428.84,412.66"/>
    </edge>
    <edge id=":cluster_1642556745_2304667126_2304667130_2304667132_24" function="internal">
        <lane id=":cluster_1642556745_2304667126_2304667130_2304667132_24_0" index="0" disallow="tram rail_urban rail rail_electric rail_fast ship" speed="18.34" length="73.21" width="4.00" shape="388.36,474.89 392.82,459.06 403.41,447.64 420.15,440.62 443.04,438.01"/>
    </edge>
    <edge id=":gneJ0_0" function="internal">
        <lane id=":gneJ0_0_0" index="0" disallow="tram rail_urban rail rail_electric rail_fast ship" speed="8.33" length="0.88" width="4.00" shape="416.93,786.15 416.93,786.06 416.93,786.00 416.93,785.94 416.92,785.86"/>
        <lane id=":gneJ0_0_1" index="1" disallow="tram rail_urban rail rail_electric rail_fast ship" speed="8.33" length="0.88" width="4.00" shape="420.93,786.24 420.93,785.98 420.93,785.80 420.92,785.62 420.89,785.36"/>
        <lane id=":gneJ0_0_2" index="2" disallow="tram rail_urban rail rail_electric rail_fast ship" speed="8.33" length="0.88" width="4.00" shape="424.93,786.33 424.94,785.89 424.93,785.60 424.91,785.30 424.86,784.87"/>
    </edge>
