<?xml version="1.0" encoding="UTF-8"?>

<!-- generated on Tue 03 Sep 2019 12:13:32 PM by Eclipse SUMO netedit Version v1_2_0+1287-e3a0083b72
<configuration xmlns:xsi="http://www.w3.org/2001/XMLSchema-instance" xsi:noNamespaceSchemaLocation="http://sumo.dlr.de/xsd/netconvertConfiguration.xsd">

    <input>
        <sumo-net-file value="/home/leeyiyuan/carla/Data/meskel_square.net.xml"/>
    </input>

    <output>
        <output-file value="/home/leeyiyuan/carla/Data/meskel_square.net.xml"/>
    </output>

    <processing>
        <geometry.max-grade.fix value="false"/>
        <offset.disable-normalization value="true"/>
        <lefthand value="false"/>
    </processing>

    <junctions>
        <no-turnarounds value="true"/>
        <junctions.corner-detail value="5"/>
        <junctions.limit-turn-speed value="5.5"/>
        <rectangular-lane-cut value="false"/>
    </junctions>

    <pedestrian>
        <walkingareas value="false"/>
    </pedestrian>

</configuration>
-->

<net version="1.3" junctionCornerDetail="5" limitTurnSpeed="5.50" xmlns:xsi="http://www.w3.org/2001/XMLSchema-instance" xsi:noNamespaceSchemaLocation="http://sumo.dlr.de/xsd/net_file.xsd">

    <location netOffset="-4314645.11,-1006806.79" convBoundary="24.32,0.00,1489.42,1381.32" origBoundary="38.754407,9.005184,38.775662,9.050170" projParameter="+proj=merc +a=6378137 +b=6378137 +lat_ts=0.0 +lon_0=0.0 +x_0=0.0 +y_0=0 +k=1.0 +units=m +nadgrids=@null +wktext +no_defs"/>

    <type id="highway.bridleway" priority="1" numLanes="1" speed="2.78" allow="pedestrian" oneway="1" width="2.00"/>
    <type id="highway.bus_guideway" priority="1" numLanes="1" speed="27.78" allow="bus" oneway="1"/>
    <type id="highway.cycleway" priority="1" numLanes="1" speed="8.33" allow="bicycle" oneway="0" width="1.00"/>
    <type id="highway.footway" priority="1" numLanes="1" speed="2.78" allow="pedestrian" oneway="1" width="2.00"/>
    <type id="highway.ford" priority="1" numLanes="1" speed="2.78" allow="army" oneway="0"/>
    <type id="highway.living_street" priority="2" numLanes="1" speed="2.78" disallow="tram rail_urban rail rail_electric rail_fast ship" oneway="0"/>
    <type id="highway.motorway" priority="14" numLanes="2" speed="39.44" allow="private emergency authority army vip passenger hov taxi bus coach delivery truck trailer motorcycle evehicle custom1 custom2" oneway="1"/>
    <type id="highway.motorway_link" priority="9" numLanes="1" speed="22.22" allow="private emergency authority army vip passenger hov taxi bus coach delivery truck trailer motorcycle evehicle custom1 custom2" oneway="1"/>
    <type id="highway.path" priority="1" numLanes="1" speed="2.78" allow="pedestrian bicycle" oneway="1" width="2.00"/>
    <type id="highway.pedestrian" priority="1" numLanes="1" speed="2.78" allow="pedestrian" oneway="1" width="2.00"/>
    <type id="highway.primary" priority="12" numLanes="2" speed="27.78" disallow="tram rail_urban rail rail_electric rail_fast ship" oneway="0"/>
    <type id="highway.primary_link" priority="7" numLanes="1" speed="22.22" disallow="tram rail_urban rail rail_electric rail_fast ship" oneway="0"/>
    <type id="highway.raceway" priority="15" numLanes="2" speed="83.33" allow="vip" oneway="0"/>
    <type id="highway.residential" priority="3" numLanes="1" speed="13.89" disallow="tram rail_urban rail rail_electric rail_fast ship" oneway="0"/>
    <type id="highway.secondary" priority="11" numLanes="2" speed="27.78" disallow="tram rail_urban rail rail_electric rail_fast ship" oneway="0"/>
    <type id="highway.secondary_link" priority="6" numLanes="1" speed="22.22" disallow="tram rail_urban rail rail_electric rail_fast ship" oneway="0"/>
    <type id="highway.service" priority="1" numLanes="1" speed="5.56" allow="pedestrian delivery bicycle" oneway="0"/>
    <type id="highway.stairs" priority="1" numLanes="1" speed="1.39" allow="pedestrian" oneway="1" width="2.00"/>
    <type id="highway.step" priority="1" numLanes="1" speed="1.39" allow="pedestrian" oneway="1" width="2.00"/>
    <type id="highway.steps" priority="1" numLanes="1" speed="1.39" allow="pedestrian" oneway="1" width="2.00"/>
    <type id="highway.tertiary" priority="10" numLanes="1" speed="22.22" disallow="tram rail_urban rail rail_electric rail_fast ship" oneway="0"/>
    <type id="highway.tertiary_link" priority="5" numLanes="1" speed="22.22" disallow="tram rail_urban rail rail_electric rail_fast ship" oneway="0"/>
    <type id="highway.track" priority="1" numLanes="1" speed="5.56" disallow="tram rail_urban rail rail_electric rail_fast ship" oneway="0"/>
    <type id="highway.trunk" priority="13" numLanes="2" speed="27.78" disallow="pedestrian bicycle tram rail_urban rail rail_electric rail_fast ship" oneway="0"/>
    <type id="highway.trunk_link" priority="8" numLanes="1" speed="22.22" disallow="pedestrian bicycle tram rail_urban rail rail_electric rail_fast ship" oneway="0"/>
    <type id="highway.unclassified" priority="4" numLanes="1" speed="13.89" disallow="tram rail_urban rail rail_electric rail_fast ship" oneway="0"/>
    <type id="highway.unsurfaced" priority="1" numLanes="1" speed="8.33" disallow="tram rail_urban rail rail_electric rail_fast ship" oneway="0"/>
    <type id="railway.highspeed" priority="21" numLanes="1" speed="69.44" allow="rail_fast" oneway="1"/>
    <type id="railway.light_rail" priority="19" numLanes="1" speed="27.78" allow="rail_urban" oneway="1"/>
    <type id="railway.preserved" priority="16" numLanes="1" speed="27.78" allow="rail" oneway="1"/>
    <type id="railway.rail" priority="20" numLanes="1" speed="44.44" allow="rail" oneway="1"/>
    <type id="railway.subway" priority="18" numLanes="1" speed="27.78" allow="rail_urban" oneway="1"/>
    <type id="railway.tram" priority="17" numLanes="1" speed="13.89" allow="tram" oneway="1"/>

    <edge id=":1642556796_0" function="internal">
        <lane id=":1642556796_0_0" index="0" disallow="tram rail_urban rail rail_electric rail_fast ship" speed="27.78" length="8.08" width="4.00" shape="409.28,506.52 409.68,514.68"/>
        <lane id=":1642556796_0_1" index="1" disallow="tram rail_urban rail rail_electric rail_fast ship" speed="27.78" length="8.08" width="4.00" shape="405.28,506.76 405.68,514.84"/>
        <lane id=":1642556796_0_2" index="2" disallow="tram rail_urban rail rail_electric rail_fast ship" speed="27.78" length="8.08" width="4.00" shape="401.29,507.00 401.69,514.99"/>
    </edge>
    <edge id=":1642556796_3" function="internal">
        <lane id=":1642556796_3_0" index="0" disallow="tram rail_urban rail rail_electric rail_fast ship" speed="25.00" length="8.25" width="4.00" shape="413.13,506.29 413.68,514.53"/>
    </edge>
    <edge id=":1642556856_0" function="internal">
        <lane id=":1642556856_0_0" index="0" disallow="tram rail_urban rail rail_electric rail_fast ship" speed="25.00" length="8.73" width="4.00" shape="516.56,462.75 507.85,463.30"/>
    </edge>
    <edge id=":1642556856_1" function="internal">
        <lane id=":1642556856_1_0" index="0" disallow="tram rail_urban rail rail_electric rail_fast ship" speed="27.78" length="8.64" width="4.00" shape="516.26,458.77 513.57,458.96 511.73,459.04 509.89,459.03 507.20,458.95"/>
        <lane id=":1642556856_1_1" index="1" disallow="tram rail_urban rail rail_electric rail_fast ship" speed="27.78" length="8.64" width="4.00" shape="515.96,454.78 513.40,454.96 511.65,455.04 509.89,455.03 507.33,454.95"/>
        <lane id=":1642556856_1_2" index="2" disallow="tram rail_urban rail rail_electric rail_fast ship" speed="27.78" length="8.64" width="4.00" shape="515.66,450.79 513.23,450.96 511.57,451.04 509.90,451.03 507.46,450.96"/>
    </edge>
    <edge id=":221437411#2-AddedOnRampNode_0" function="internal">
        <lane id=":221437411#2-AddedOnRampNode_0_0" index="0" disallow="tram rail_urban rail rail_electric rail_fast ship" speed="27.78" length="8.25" width="4.00" shape="234.36,490.55 231.78,490.34 230.08,489.23 228.38,488.12 225.81,487.92"/>
        <lane id=":221437411#2-AddedOnRampNode_0_1" index="1" disallow="tram rail_urban rail rail_electric rail_fast ship" speed="27.78" length="8.25" width="4.00" shape="233.70,486.60 225.81,487.92"/>
        <lane id=":221437411#2-AddedOnRampNode_0_2" index="2" disallow="tram rail_urban rail rail_electric rail_fast ship" speed="27.78" length="8.25" width="4.00" shape="233.04,482.66 225.14,483.97"/>
        <lane id=":221437411#2-AddedOnRampNode_0_3" index="3" disallow="tram rail_urban rail rail_electric rail_fast ship" speed="27.78" length="8.25" width="4.00" shape="232.37,478.71 224.48,480.03"/>
        <lane id=":221437411#2-AddedOnRampNode_0_4" index="4" disallow="tram rail_urban rail rail_electric rail_fast ship" speed="27.78" length="8.25" width="4.00" shape="231.71,474.77 223.82,476.08"/>
    </edge>
    <edge id=":224859358#1-AddedOnRampNode_0" function="internal">
        <lane id=":224859358#1-AddedOnRampNode_0_0" index="0" disallow="tram rail_urban rail rail_electric rail_fast ship" speed="27.78" length="8.18" width="4.00" shape="204.19,450.60 206.77,450.81 208.48,451.92 210.18,453.04 212.77,453.25"/>
        <lane id=":224859358#1-AddedOnRampNode_0_1" index="1" disallow="tram rail_urban rail rail_electric rail_fast ship" speed="27.78" length="8.18" width="4.00" shape="204.84,454.55 212.77,453.25"/>
        <lane id=":224859358#1-AddedOnRampNode_0_2" index="2" disallow="tram rail_urban rail rail_electric rail_fast ship" speed="27.78" length="8.18" width="4.00" shape="205.49,458.50 213.41,457.20"/>
        <lane id=":224859358#1-AddedOnRampNode_0_3" index="3" disallow="tram rail_urban rail rail_electric rail_fast ship" speed="27.78" length="8.18" width="4.00" shape="206.14,462.44 214.04,461.15"/>
        <lane id=":224859358#1-AddedOnRampNode_0_4" index="4" disallow="tram rail_urban rail rail_electric rail_fast ship" speed="27.78" length="8.18" width="4.00" shape="206.79,466.39 214.67,465.10"/>
        <lane id=":224859358#1-AddedOnRampNode_0_5" index="5" disallow="tram rail_urban rail rail_electric rail_fast ship" speed="27.78" length="8.18" width="4.00" shape="207.45,470.34 215.31,469.05"/>
        <lane id=":224859358#1-AddedOnRampNode_0_6" index="6" disallow="tram rail_urban rail rail_electric rail_fast ship" speed="27.78" length="8.18" width="4.00" shape="208.10,474.28 215.94,473.00"/>
    </edge>
    <edge id=":224859359#1-AddedOnRampNode_0" function="internal">
        <lane id=":224859359#1-AddedOnRampNode_0_0" index="0" disallow="tram rail_urban rail rail_electric rail_fast ship" speed="27.78" length="8.31" width="4.00" shape="421.73,606.32 421.38,608.89 420.18,610.52 418.97,612.15 418.62,614.71"/>
        <lane id=":224859359#1-AddedOnRampNode_0_1" index="1" disallow="tram rail_urban rail rail_electric rail_fast ship" speed="27.78" length="8.31" width="4.00" shape="417.75,606.76 418.62,614.71"/>
        <lane id=":224859359#1-AddedOnRampNode_0_2" index="2" disallow="tram rail_urban rail rail_electric rail_fast ship" speed="27.78" length="8.31" width="4.00" shape="413.78,607.19 414.64,615.14"/>
        <lane id=":224859359#1-AddedOnRampNode_0_3" index="3" disallow="tram rail_urban rail rail_electric rail_fast ship" speed="27.78" length="8.31" width="4.00" shape="409.80,607.63 410.66,615.58"/>
    </edge>
    <edge id=":271900700_0" function="internal">
        <lane id=":271900700_0_0" index="0" disallow="tram rail_urban rail rail_electric rail_fast ship" speed="27.78" length="0.10" width="4.00" shape="516.84,340.31 516.84,340.31"/>
        <lane id=":271900700_0_1" index="1" disallow="tram rail_urban rail rail_electric rail_fast ship" speed="27.78" length="0.10" width="4.00" shape="513.89,337.61 513.89,337.61"/>
        <lane id=":271900700_0_2" index="2" disallow="tram rail_urban rail rail_electric rail_fast ship" speed="27.78" length="0.10" width="4.00" shape="510.93,334.91 510.93,334.91"/>
        <lane id=":271900700_0_3" index="3" disallow="tram rail_urban rail rail_electric rail_fast ship" speed="27.78" length="0.10" width="4.00" shape="507.98,332.21 507.98,332.21"/>
    </edge>
    <edge id=":271900701_0" function="internal">
        <lane id=":271900701_0_0" index="0" disallow="tram rail_urban rail rail_electric rail_fast ship" speed="27.78" length="0.30" width="4.00" shape="494.24,323.70 494.45,323.47"/>
        <lane id=":271900701_0_1" index="1" disallow="tram rail_urban rail rail_electric rail_fast ship" speed="27.78" length="0.30" width="4.00" shape="497.20,326.39 497.40,326.16"/>
        <lane id=":271900701_0_2" index="2" disallow="tram rail_urban rail rail_electric rail_fast ship" speed="27.78" length="0.30" width="4.00" shape="500.16,329.08 500.36,328.86"/>
        <lane id=":271900701_0_3" index="3" disallow="tram rail_urban rail rail_electric rail_fast ship" speed="27.78" length="0.30" width="4.00" shape="503.12,331.76 503.31,331.55"/>
    </edge>
    <edge id=":35977533-AddedOffRampNode_0" function="internal">
        <lane id=":35977533-AddedOffRampNode_0_0" index="0" disallow="tram rail_urban rail rail_electric rail_fast ship" speed="27.78" length="8.31" width="4.00" shape="393.07,611.17 392.16,608.75 390.62,607.43 389.08,606.11 388.17,603.69"/>
        <lane id=":35977533-AddedOffRampNode_0_1" index="1" disallow="tram rail_urban rail rail_electric rail_fast ship" speed="27.78" length="8.31" width="4.00" shape="393.07,611.17 392.14,603.23"/>
        <lane id=":35977533-AddedOffRampNode_0_2" index="2" disallow="tram rail_urban rail rail_electric rail_fast ship" speed="27.78" length="8.31" width="4.00" shape="397.04,610.71 396.12,602.77"/>
        <lane id=":35977533-AddedOffRampNode_0_3" index="3" disallow="tram rail_urban rail rail_electric rail_fast ship" speed="27.78" length="8.31" width="4.00" shape="401.01,610.25 400.09,602.31"/>
    </edge>
    <edge id=":420520082_0" function="internal">
        <lane id=":420520082_0_0" index="0" disallow="tram rail_urban rail rail_electric rail_fast ship" speed="18.05" length="2.04" width="4.00" shape="443.06,784.35 443.11,784.54 443.16,784.67 443.22,784.80 443.33,784.97"/>
        <lane id=":420520082_0_1" index="1" disallow="tram rail_urban rail rail_electric rail_fast ship" speed="12.34" length="2.04" width="4.00" shape="439.17,785.25 439.31,785.84 439.44,786.23 439.63,786.60 439.95,787.11"/>
        <lane id=":420520082_0_2" index="2" disallow="tram rail_urban rail rail_electric rail_fast ship" speed="15.82" length="2.04" width="4.00" shape="435.27,786.16 435.51,787.13 435.73,787.79 436.04,788.41 436.57,789.26"/>
    </edge>
    <edge id=":420520083_0" function="internal">
        <lane id=":420520083_0_0" index="0" disallow="tram rail_urban rail rail_electric rail_fast ship" speed="18.05" length="0.45" width="4.00" shape="409.80,748.89 409.70,748.25"/>
        <lane id=":420520083_0_1" index="1" disallow="tram rail_urban rail rail_electric rail_fast ship" speed="18.05" length="0.45" width="4.00" shape="413.74,748.19 413.67,747.75"/>
        <lane id=":420520083_0_2" index="2" disallow="tram rail_urban rail rail_electric rail_fast ship" speed="18.05" length="0.45" width="4.00" shape="417.68,747.50 417.64,747.24"/>
    </edge>
    <edge id=":5170734159_0" function="internal">
        <lane id=":5170734159_0_0" index="0" disallow="tram rail_urban rail rail_electric rail_fast ship" speed="25.00" length="7.83" width="4.00" shape="332.93,476.34 325.13,477.12"/>
    </edge>
    <edge id=":5170734159_1" function="internal">
        <lane id=":5170734159_1_0" index="0" disallow="tram rail_urban rail rail_electric rail_fast ship" speed="27.78" length="7.99" width="4.00" shape="332.41,472.14 324.58,473.16"/>
        <lane id=":5170734159_1_1" index="1" disallow="tram rail_urban rail rail_electric rail_fast ship" speed="27.78" length="7.99" width="4.00" shape="331.93,468.17 324.04,469.20"/>
        <lane id=":5170734159_1_2" index="2" disallow="tram rail_urban rail rail_electric rail_fast ship" speed="27.78" length="7.99" width="4.00" shape="331.45,464.20 323.49,465.24"/>
        <lane id=":5170734159_1_3" index="3" disallow="tram rail_urban rail rail_electric rail_fast ship" speed="27.78" length="7.99" width="4.00" shape="330.96,460.23 322.94,461.28"/>
    </edge>
    <edge id=":5170751727_0" function="internal">
        <lane id=":5170751727_0_0" index="0" disallow="tram rail_urban rail rail_electric rail_fast ship" speed="25.00" length="7.86" width="4.00" shape="107.27,466.55 115.03,465.33"/>
    </edge>
    <edge id=":5170751727_1" function="internal">
        <lane id=":5170751727_1_0" index="0" disallow="tram rail_urban rail rail_electric rail_fast ship" speed="27.78" length="8.01" width="4.00" shape="107.88,470.52 115.69,469.27"/>
        <lane id=":5170751727_1_1" index="1" disallow="tram rail_urban rail rail_electric rail_fast ship" speed="27.78" length="8.01" width="4.00" shape="108.49,474.48 116.34,473.22"/>
        <lane id=":5170751727_1_2" index="2" disallow="tram rail_urban rail rail_electric rail_fast ship" speed="27.78" length="8.01" width="4.00" shape="109.10,478.43 116.99,477.17"/>
        <lane id=":5170751727_1_3" index="3" disallow="tram rail_urban rail rail_electric rail_fast ship" speed="27.78" length="8.01" width="4.00" shape="109.71,482.39 117.64,481.11"/>
        <lane id=":5170751727_1_4" index="4" disallow="tram rail_urban rail rail_electric rail_fast ship" speed="27.78" length="8.01" width="4.00" shape="110.31,486.34 118.29,485.06"/>
        <lane id=":5170751727_1_5" index="5" disallow="tram rail_urban rail rail_electric rail_fast ship" speed="27.78" length="8.01" width="4.00" shape="110.92,490.29 118.95,489.01"/>
    </edge>
    <edge id=":5736089086_0" function="internal">
        <lane id=":5736089086_0_0" index="0" disallow="tram rail_urban rail rail_electric rail_fast ship" speed="25.00" length="8.43" width="4.00" shape="377.61,512.89 376.13,504.59"/>
    </edge>
    <edge id=":5736089086_1" function="internal">
        <lane id=":5736089086_1_0" index="0" disallow="tram rail_urban rail rail_electric rail_fast ship" speed="27.78" length="9.12" width="4.00" shape="381.57,512.32 381.18,509.64 380.97,507.80 380.86,505.95 380.76,503.25"/>
    </edge>
    <edge id=":5736089086_2" function="internal">
        <lane id=":5736089086_2_0" index="0" disallow="tram rail_urban rail rail_electric rail_fast ship" speed="27.78" length="8.67" width="4.00" shape="385.52,511.74 385.16,509.19 384.96,507.44 384.85,505.69 384.76,503.12"/>
    </edge>
    <edge id=":5736089086_3" function="internal">
        <lane id=":5736089086_3_0" index="0" disallow="tram rail_urban rail rail_electric rail_fast ship" speed="27.78" length="8.22" width="4.00" shape="389.48,511.17 389.14,508.75 388.95,507.09 388.84,505.42 388.76,502.99"/>
    </edge>
    <edge id=":678126832#0-AddedOffRampNode_0" function="internal">
        <lane id=":678126832#0-AddedOffRampNode_0_0" index="0" disallow="tram rail_urban rail rail_electric rail_fast ship" speed="27.78" length="8.31" width="4.00" shape="615.71,449.67 613.29,450.58 611.97,452.12 610.65,453.65 608.23,454.57"/>
        <lane id=":678126832#0-AddedOffRampNode_0_1" index="1" disallow="tram rail_urban rail rail_electric rail_fast ship" speed="27.78" length="8.31" width="4.00" shape="615.71,449.67 607.76,450.59"/>
        <lane id=":678126832#0-AddedOffRampNode_0_2" index="2" disallow="tram rail_urban rail rail_electric rail_fast ship" speed="27.78" length="8.31" width="4.00" shape="615.24,445.69 607.30,446.62"/>
        <lane id=":678126832#0-AddedOffRampNode_0_3" index="3" disallow="tram rail_urban rail rail_electric rail_fast ship" speed="27.78" length="8.31" width="4.00" shape="614.78,441.72 606.83,442.65"/>
    </edge>
    <edge id=":cluster_1642556745_2304667126_2304667130_2304667132_0" function="internal">
        <lane id=":cluster_1642556745_2304667126_2304667130_2304667132_0_0" index="0" disallow="tram rail_urban rail rail_electric rail_fast ship" speed="15.33" length="48.49" width="4.00" shape="443.73,457.39 429.06,460.02 418.34,465.36 411.57,473.40 408.75,484.13"/>
    </edge>
    <edge id=":cluster_1642556745_2304667126_2304667130_2304667132_1" function="internal">
        <lane id=":cluster_1642556745_2304667126_2304667130_2304667132_1_0" index="0" disallow="tram rail_urban rail rail_electric rail_fast ship" speed="27.78" length="70.69" width="4.00" shape="443.73,457.39 373.84,463.05"/>
        <lane id=":cluster_1642556745_2304667126_2304667130_2304667132_1_1" index="1" disallow="tram rail_urban rail rail_electric rail_fast ship" speed="27.78" length="70.69" width="4.00" shape="443.68,453.38 373.16,459.10"/>
        <lane id=":cluster_1642556745_2304667126_2304667130_2304667132_1_2" index="2" disallow="tram rail_urban rail rail_electric rail_fast ship" speed="27.78" length="70.69" width="4.00" shape="443.68,453.38 372.49,455.16"/>
    </edge>
    <edge id=":cluster_1642556745_2304667126_2304667130_2304667132_4" function="internal">
        <lane id=":cluster_1642556745_2304667126_2304667130_2304667132_4_0" index="0" disallow="tram rail_urban rail rail_electric rail_fast ship" speed="12.64" length="27.13" width="4.00" shape="443.68,453.38 427.66,449.97 420.79,441.70"/>
    </edge>
    <edge id=":cluster_1642556745_2304667126_2304667130_2304667132_5" function="internal">
        <lane id=":cluster_1642556745_2304667126_2304667130_2304667132_5_0" index="0" disallow="tram rail_urban rail rail_electric rail_fast ship" speed="11.62" length="20.58" width="4.00" shape="443.62,449.37 430.21,446.50 425.86,441.19"/>
    </edge>
    <edge id=":cluster_1642556745_2304667126_2304667130_2304667132_25" function="internal">
        <lane id=":cluster_1642556745_2304667126_2304667130_2304667132_25_0" index="0" disallow="tram rail_urban rail rail_electric rail_fast ship" speed="12.64" length="34.56" width="4.00" shape="420.79,441.70 418.73,439.23 418.09,424.81 426.93,410.40"/>
    </edge>
    <edge id=":cluster_1642556745_2304667126_2304667130_2304667132_26" function="internal">
        <lane id=":cluster_1642556745_2304667126_2304667130_2304667132_26_0" index="0" disallow="tram rail_urban rail rail_electric rail_fast ship" speed="11.62" length="31.21" width="4.00" shape="425.86,441.19 422.79,437.44 422.33,425.31 429.79,413.19"/>
    </edge>
    <edge id=":cluster_1642556745_2304667126_2304667130_2304667132_6" function="internal">
        <lane id=":cluster_1642556745_2304667126_2304667130_2304667132_6_0" index="0" disallow="tram rail_urban rail rail_electric rail_fast ship" speed="5.87" length="10.82" width="4.00" shape="440.53,423.68 438.56,426.50 438.37,428.49 439.96,429.66 443.34,430.01"/>
    </edge>
    <edge id=":cluster_1642556745_2304667126_2304667130_2304667132_7" function="internal">
        <lane id=":cluster_1642556745_2304667126_2304667130_2304667132_7_0" index="0" disallow="tram rail_urban rail rail_electric rail_fast ship" speed="27.78" length="70.58" width="4.00" shape="440.53,423.68 430.11,437.33 420.05,453.90 412.29,470.48 408.75,484.13"/>
        <lane id=":cluster_1642556745_2304667126_2304667130_2304667132_7_1" index="1" disallow="tram rail_urban rail rail_electric rail_fast ship" speed="27.78" length="70.58" width="4.00" shape="437.67,420.89 427.08,434.74 416.67,451.75 408.55,468.77 404.85,482.63"/>
        <lane id=":cluster_1642556745_2304667126_2304667130_2304667132_7_2" index="2" disallow="tram rail_urban rail rail_electric rail_fast ship" speed="27.78" length="70.58" width="4.00" shape="434.80,418.09 424.06,432.14 413.28,449.60 404.81,467.06 400.94,481.12"/>
    </edge>
    <edge id=":cluster_1642556745_2304667126_2304667130_2304667132_10" function="internal">
        <lane id=":cluster_1642556745_2304667126_2304667130_2304667132_10_0" index="0" disallow="tram rail_urban rail rail_electric rail_fast ship" speed="27.78" length="72.65" width="4.00" shape="431.94,415.29 419.84,427.49 404.68,439.92 388.28,450.00 372.49,455.16"/>
    </edge>
    <edge id=":cluster_1642556745_2304667126_2304667130_2304667132_11" function="internal">
        <lane id=":cluster_1642556745_2304667126_2304667130_2304667132_11_0" index="0" disallow="tram rail_urban rail rail_electric rail_fast ship" speed="27.78" length="60.03" width="4.00" shape="368.22,430.24 386.72,426.44 400.16,421.11 410.88,413.99 421.20,404.80"/>
    </edge>
    <edge id=":cluster_1642556745_2304667126_2304667130_2304667132_12" function="internal">
        <lane id=":cluster_1642556745_2304667126_2304667130_2304667132_12_0" index="0" disallow="tram rail_urban rail rail_electric rail_fast ship" speed="27.78" length="62.49" width="4.00" shape="368.90,434.19 388.00,430.17 402.16,424.45 413.48,416.95 424.06,407.60"/>
    </edge>
    <edge id=":cluster_1642556745_2304667126_2304667130_2304667132_13" function="internal">
        <lane id=":cluster_1642556745_2304667126_2304667130_2304667132_13_0" index="0" disallow="tram rail_urban rail rail_electric rail_fast ship" speed="27.78" length="64.93" width="4.00" shape="369.57,438.13 389.02,433.94 403.93,427.82 416.01,419.93 426.93,410.40"/>
    </edge>
    <edge id=":cluster_1642556745_2304667126_2304667130_2304667132_14" function="internal">
        <lane id=":cluster_1642556745_2304667126_2304667130_2304667132_14_0" index="0" disallow="tram rail_urban rail rail_electric rail_fast ship" speed="27.78" length="73.62" width="4.00" shape="369.57,438.13 391.52,435.10 411.97,432.57 429.66,430.78 443.34,430.01"/>
        <lane id=":cluster_1642556745_2304667126_2304667130_2304667132_14_1" index="1" disallow="tram rail_urban rail rail_electric rail_fast ship" speed="27.78" length="73.62" width="4.00" shape="370.25,442.07 392.10,439.06 412.33,436.54 429.82,434.77 443.40,434.01"/>
        <lane id=":cluster_1642556745_2304667126_2304667130_2304667132_14_2" index="2" disallow="tram rail_urban rail rail_electric rail_fast ship" speed="27.78" length="73.62" width="4.00" shape="370.92,446.02 392.68,443.01 412.70,440.51 429.97,438.76 443.45,438.01"/>
    </edge>
    <edge id=":cluster_1642556745_2304667126_2304667130_2304667132_17" function="internal">
        <lane id=":cluster_1642556745_2304667126_2304667130_2304667132_17_0" index="0" disallow="tram rail_urban rail rail_electric rail_fast ship" speed="15.03" length="29.67" width="4.00" shape="370.92,446.02 388.08,446.19 398.91,452.48"/>
    </edge>
    <edge id=":cluster_1642556745_2304667126_2304667130_2304667132_18" function="internal">
        <lane id=":cluster_1642556745_2304667126_2304667130_2304667132_18_0" index="0" disallow="tram rail_urban rail rail_electric rail_fast ship" speed="13.95" length="20.06" width="4.00" shape="371.60,449.96 386.35,450.08 390.97,452.69"/>
    </edge>
    <edge id=":cluster_1642556745_2304667126_2304667130_2304667132_27" function="internal">
        <lane id=":cluster_1642556745_2304667126_2304667130_2304667132_27_0" index="0" disallow="tram rail_urban rail rail_electric rail_fast ship" speed="15.03" length="31.27" width="4.00" shape="398.91,452.48 404.22,464.68 404.85,482.63"/>
    </edge>
    <edge id=":cluster_1642556745_2304667126_2304667130_2304667132_28" function="internal">
        <lane id=":cluster_1642556745_2304667126_2304667130_2304667132_28_0" index="0" disallow="tram rail_urban rail rail_electric rail_fast ship" speed="13.95" length="32.20" width="4.00" shape="390.97,452.69 395.72,455.38 400.37,465.77 400.94,481.12"/>
    </edge>
    <edge id=":cluster_1642556745_2304667126_2304667130_2304667132_19" function="internal">
        <lane id=":cluster_1642556745_2304667126_2304667130_2304667132_19_0" index="0" disallow="tram rail_urban rail rail_electric rail_fast ship" speed="6.57" length="10.34" width="4.00" shape="380.47,473.22 380.30,470.20 379.25,468.16 377.32,467.09 374.52,467.00"/>
    </edge>
    <edge id=":cluster_1642556745_2304667126_2304667130_2304667132_20" function="internal">
        <lane id=":cluster_1642556745_2304667126_2304667130_2304667132_20_0" index="0" disallow="tram rail_urban rail rail_electric rail_fast ship" speed="27.78" length="78.13" width="4.00" shape="380.47,473.22 385.27,458.15 395.81,438.55 408.86,419.18 421.20,404.80"/>
        <lane id=":cluster_1642556745_2304667126_2304667130_2304667132_20_1" index="1" disallow="tram rail_urban rail rail_electric rail_fast ship" speed="27.78" length="78.13" width="4.00" shape="384.37,474.73 389.01,459.86 399.19,440.70 411.89,421.78 424.06,407.60"/>
        <lane id=":cluster_1642556745_2304667126_2304667130_2304667132_20_2" index="2" disallow="tram rail_urban rail rail_electric rail_fast ship" speed="27.78" length="78.13" width="4.00" shape="388.26,476.23 392.74,461.56 402.57,442.85 414.91,424.37 426.93,410.40"/>
        <lane id=":cluster_1642556745_2304667126_2304667130_2304667132_20_3" index="3" disallow="tram rail_urban rail rail_electric rail_fast ship" speed="27.78" length="78.13" width="4.00" shape="388.26,476.23 393.19,462.00 404.00,444.25 417.33,426.73 429.79,413.19"/>
    </edge>
    <edge id=":cluster_1642556745_2304667126_2304667130_2304667132_24" function="internal">
        <lane id=":cluster_1642556745_2304667126_2304667130_2304667132_24_0" index="0" disallow="tram rail_urban rail rail_electric rail_fast ship" speed="18.51" length="74.61" width="4.00" shape="388.26,476.23 392.78,459.82 403.49,447.97 420.38,440.70 443.45,438.01"/>
    </edge>

    <edge id="151430192#2" from="5736089086" to="cluster_1642556745_2304667126_2304667130_2304667132" priority="12" type="highway.primary" spreadType="center" shape="384.90,507.44 384.55,496.63 383.83,481.72 385.54,459.37">
        <lane id="151430192#2_0" index="0" disallow="tram rail_urban rail rail_electric rail_fast ship" speed="27.78" length="28.43" width="4.00" shape="380.76,503.25 380.55,496.79 379.82,481.66 380.47,473.22"/>
        <lane id="151430192#2_1" index="1" disallow="tram rail_urban rail rail_electric rail_fast ship" speed="27.78" length="28.43" width="4.00" shape="384.76,503.12 384.55,496.63 383.83,481.72 384.37,474.73"/>