<?xml version="1.0" encoding="UTF-8"?>

<!-- generated on Mon 02 Sep 2019 01:15:46 PM by Eclipse SUMO netedit Version v1_2_0+1287-e3a0083b72
<configuration xmlns:xsi="http://www.w3.org/2001/XMLSchema-instance" xsi:noNamespaceSchemaLocation="http://sumo.dlr.de/xsd/netconvertConfiguration.xsd">

    <input>
        <sumo-net-file value="/home/leeyiyuan/carla/Data/meskel_square.net.xml"/>
    </input>

    <output>
        <output-file value="/home/leeyiyuan/carla/Data/meskel_square.net.xml"/>
    </output>

    <processing>
        <geometry.max-grade.fix value="false"/>
        <offset.disable-normalization value="true"/>
        <lefthand value="false"/>
    </processing>

    <junctions>
        <no-turnarounds value="true"/>
        <junctions.corner-detail value="5"/>
        <junctions.limit-turn-speed value="5.5"/>
        <rectangular-lane-cut value="false"/>
    </junctions>

    <pedestrian>
        <walkingareas value="false"/>
    </pedestrian>

</configuration>
-->

<net version="1.3" junctionCornerDetail="5" limitTurnSpeed="5.50" xmlns:xsi="http://www.w3.org/2001/XMLSchema-instance" xsi:noNamespaceSchemaLocation="http://sumo.dlr.de/xsd/net_file.xsd">

    <location netOffset="-4314645.11,-1006806.79" convBoundary="0.00,0.00,1489.42,1381.32" origBoundary="38.754407,9.005184,38.775662,9.050170" projParameter="+proj=merc +a=6378137 +b=6378137 +lat_ts=0.0 +lon_0=0.0 +x_0=0.0 +y_0=0 +k=1.0 +units=m +nadgrids=@null +wktext +no_defs"/>

    <type id="highway.bridleway" priority="1" numLanes="1" speed="2.78" allow="pedestrian" oneway="1" width="2.00"/>
    <type id="highway.bus_guideway" priority="1" numLanes="1" speed="27.78" allow="bus" oneway="1"/>
    <type id="highway.cycleway" priority="1" numLanes="1" speed="8.33" allow="bicycle" oneway="0" width="1.00"/>
    <type id="highway.footway" priority="1" numLanes="1" speed="2.78" allow="pedestrian" oneway="1" width="2.00"/>
    <type id="highway.ford" priority="1" numLanes="1" speed="2.78" allow="army" oneway="0"/>
    <type id="highway.living_street" priority="2" numLanes="1" speed="2.78" disallow="tram rail_urban rail rail_electric rail_fast ship" oneway="0"/>
    <type id="highway.motorway" priority="14" numLanes="2" speed="39.44" allow="private emergency authority army vip passenger hov taxi bus coach delivery truck trailer motorcycle evehicle custom1 custom2" oneway="1"/>
    <type id="highway.motorway_link" priority="9" numLanes="1" speed="22.22" allow="private emergency authority army vip passenger hov taxi bus coach delivery truck trailer motorcycle evehicle custom1 custom2" oneway="1"/>
    <type id="highway.path" priority="1" numLanes="1" speed="2.78" allow="pedestrian bicycle" oneway="1" width="2.00"/>
    <type id="highway.pedestrian" priority="1" numLanes="1" speed="2.78" allow="pedestrian" oneway="1" width="2.00"/>
    <type id="highway.primary" priority="12" numLanes="2" speed="27.78" disallow="tram rail_urban rail rail_electric rail_fast ship" oneway="0"/>
    <type id="highway.primary_link" priority="7" numLanes="1" speed="22.22" disallow="tram rail_urban rail rail_electric rail_fast ship" oneway="0"/>
    <type id="highway.raceway" priority="15" numLanes="2" speed="83.33" allow="vip" oneway="0"/>
    <type id="highway.residential" priority="3" numLanes="1" speed="13.89" disallow="tram rail_urban rail rail_electric rail_fast ship" oneway="0"/>
    <type id="highway.secondary" priority="11" numLanes="2" speed="27.78" disallow="tram rail_urban rail rail_electric rail_fast ship" oneway="0"/>
    <type id="highway.secondary_link" priority="6" numLanes="1" speed="22.22" disallow="tram rail_urban rail rail_electric rail_fast ship" oneway="0"/>
    <type id="highway.service" priority="1" numLanes="1" speed="5.56" allow="pedestrian delivery bicycle" oneway="0"/>
    <type id="highway.stairs" priority="1" numLanes="1" speed="1.39" allow="pedestrian" oneway="1" width="2.00"/>
    <type id="highway.step" priority="1" numLanes="1" speed="1.39" allow="pedestrian" oneway="1" width="2.00"/>
    <type id="highway.steps" priority="1" numLanes="1" speed="1.39" allow="pedestrian" oneway="1" width="2.00"/>
    <type id="highway.tertiary" priority="10" numLanes="1" speed="22.22" disallow="tram rail_urban rail rail_electric rail_fast ship" oneway="0"/>
    <type id="highway.tertiary_link" priority="5" numLanes="1" speed="22.22" disallow="tram rail_urban rail rail_electric rail_fast ship" oneway="0"/>
    <type id="highway.track" priority="1" numLanes="1" speed="5.56" disallow="tram rail_urban rail rail_electric rail_fast ship" oneway="0"/>
    <type id="highway.trunk" priority="13" numLanes="2" speed="27.78" disallow="pedestrian bicycle tram rail_urban rail rail_electric rail_fast ship" oneway="0"/>
    <type id="highway.trunk_link" priority="8" numLanes="1" speed="22.22" disallow="pedestrian bicycle tram rail_urban rail rail_electric rail_fast ship" oneway="0"/>
    <type id="highway.unclassified" priority="4" numLanes="1" speed="13.89" disallow="tram rail_urban rail rail_electric rail_fast ship" oneway="0"/>
    <type id="highway.unsurfaced" priority="1" numLanes="1" speed="8.33" disallow="tram rail_urban rail rail_electric rail_fast ship" oneway="0"/>
    <type id="railway.highspeed" priority="21" numLanes="1" speed="69.44" allow="rail_fast" oneway="1"/>
    <type id="railway.light_rail" priority="19" numLanes="1" speed="27.78" allow="rail_urban" oneway="1"/>
    <type id="railway.preserved" priority="16" numLanes="1" speed="27.78" allow="rail" oneway="1"/>
    <type id="railway.rail" priority="20" numLanes="1" speed="44.44" allow="rail" oneway="1"/>
    <type id="railway.subway" priority="18" numLanes="1" speed="27.78" allow="rail_urban" oneway="1"/>
    <type id="railway.tram" priority="17" numLanes="1" speed="13.89" allow="tram" oneway="1"/>

    <edge id=":1642556796_0" function="internal">
        <lane id=":1642556796_0_0" index="0" disallow="tram rail_urban rail rail_electric rail_fast ship" speed="27.78" length="3.45" width="4.00" shape="405.87,508.93 406.30,512.66"/>
        <lane id=":1642556796_0_1" index="1" disallow="tram rail_urban rail rail_electric rail_fast ship" speed="27.78" length="3.45" width="4.00" shape="401.92,509.54 402.32,512.96"/>
        <lane id=":1642556796_0_2" index="2" disallow="tram rail_urban rail rail_electric rail_fast ship" speed="27.78" length="3.45" width="4.00" shape="397.97,510.14 398.33,513.27"/>
    </edge>
    <edge id=":1642556796_3" function="internal">
        <lane id=":1642556796_3_0" index="0" disallow="tram rail_urban rail rail_electric rail_fast ship" speed="7.19" length="2.57" width="4.00" shape="409.61,509.93 410.02,510.56 410.20,511.05 410.25,511.58 410.29,512.35"/>
    </edge>
    <edge id=":1642556856_0" function="internal">
        <lane id=":1642556856_0_0" index="0" disallow="tram rail_urban rail rail_electric rail_fast ship" speed="25.00" length="8.73" width="4.00" shape="516.56,462.75 507.85,463.30"/>
    </edge>
    <edge id=":1642556856_1" function="internal">
        <lane id=":1642556856_1_0" index="0" disallow="tram rail_urban rail rail_electric rail_fast ship" speed="27.78" length="8.64" width="4.00" shape="516.26,458.77 513.57,458.96 511.73,459.04 509.89,459.03 507.20,458.95"/>
        <lane id=":1642556856_1_1" index="1" disallow="tram rail_urban rail rail_electric rail_fast ship" speed="27.78" length="8.64" width="4.00" shape="515.96,454.78 513.40,454.96 511.65,455.04 509.89,455.03 507.33,454.95"/>
        <lane id=":1642556856_1_2" index="2" disallow="tram rail_urban rail rail_electric rail_fast ship" speed="27.78" length="8.64" width="4.00" shape="515.66,450.79 513.23,450.96 511.57,451.04 509.90,451.03 507.46,450.96"/>
    </edge>
    <edge id=":1856687943_0" function="internal">
        <lane id=":1856687943_0_0" index="0" disallow="tram rail_urban rail rail_electric rail_fast ship" speed="4.08" length="5.84" width="4.00" shape="-0.79,215.15 -1.77,213.64 -1.84,212.52 -0.98,211.80 0.79,211.47"/>
    </edge>
    <edge id=":1856687968_0" function="internal">
        <lane id=":1856687968_0_0" index="0" disallow="tram rail_urban rail rail_electric rail_fast ship" speed="6.40" length="9.81" width="4.00" shape="201.64,141.89 199.05,140.89 196.93,141.07 195.27,142.41 194.08,144.91"/>
    </edge>
    <edge id=":1856687968_1" function="internal">
        <lane id=":1856687968_1_0" index="0" disallow="tram rail_urban rail rail_electric rail_fast ship" speed="13.89" length="16.04" width="4.00" shape="201.64,141.89 198.25,139.94 194.73,137.83 191.26,135.62 188.03,133.42"/>
    </edge>
    <edge id=":1856687968_2" function="internal">
        <lane id=":1856687968_2_0" index="0" disallow="tram rail_urban rail rail_electric rail_fast ship" speed="13.89" length="15.61" width="4.00" shape="190.34,130.16 193.52,132.32 196.86,134.45 200.25,136.49 203.59,138.40"/>
    </edge>
    <edge id=":1856687968_3" function="internal">
        <lane id=":1856687968_3_0" index="0" disallow="tram rail_urban rail rail_electric rail_fast ship" speed="9.81" length="6.31" width="4.00" shape="190.34,130.16 193.13,132.89 194.14,135.08"/>
    </edge>
    <edge id=":1856687968_6" function="internal">
        <lane id=":1856687968_6_0" index="0" disallow="tram rail_urban rail rail_electric rail_fast ship" speed="9.81" length="10.06" width="4.00" shape="194.14,135.08 194.68,136.26 195.00,140.27 194.08,144.91"/>
    </edge>
    <edge id=":1856687968_4" function="internal">
        <lane id=":1856687968_4_0" index="0" disallow="tram rail_urban rail rail_electric rail_fast ship" speed="8.26" length="11.32" width="4.00" shape="190.26,143.73 190.95,140.40 190.81,137.58 189.83,135.25 188.03,133.42"/>
    </edge>
    <edge id=":1856687968_5" function="internal">
        <lane id=":1856687968_5_0" index="0" disallow="tram rail_urban rail rail_electric rail_fast ship" speed="8.26" length="17.31" width="4.00" shape="190.26,143.73 192.36,139.31 195.28,136.95 199.02,136.64 203.59,138.40"/>
    </edge>
    <edge id=":2051118319_0" function="internal">
        <lane id=":2051118319_0_0" index="0" disallow="tram rail_urban rail rail_electric rail_fast ship" speed="4.08" length="5.84" width="4.00" shape="290.91,187.21 291.73,188.82 291.68,189.94 290.75,190.56 288.95,190.71"/>
    </edge>
    <edge id=":221437411#2-AddedOnRampNode_0" function="internal">
        <lane id=":221437411#2-AddedOnRampNode_0_0" index="0" disallow="tram rail_urban rail rail_electric rail_fast ship" speed="27.78" length="8.25" width="4.00" shape="234.36,490.55 231.78,490.34 230.08,489.23 228.38,488.12 225.81,487.92"/>
        <lane id=":221437411#2-AddedOnRampNode_0_1" index="1" disallow="tram rail_urban rail rail_electric rail_fast ship" speed="27.78" length="8.25" width="4.00" shape="233.70,486.60 225.81,487.92"/>
        <lane id=":221437411#2-AddedOnRampNode_0_2" index="2" disallow="tram rail_urban rail rail_electric rail_fast ship" speed="27.78" length="8.25" width="4.00" shape="233.04,482.66 225.14,483.97"/>
        <lane id=":221437411#2-AddedOnRampNode_0_3" index="3" disallow="tram rail_urban rail rail_electric rail_fast ship" speed="27.78" length="8.25" width="4.00" shape="232.37,478.71 224.48,480.03"/>
        <lane id=":221437411#2-AddedOnRampNode_0_4" index="4" disallow="tram rail_urban rail rail_electric rail_fast ship" speed="27.78" length="8.25" width="4.00" shape="231.71,474.77 223.82,476.08"/>
    </edge>
    <edge id=":224859358#1-AddedOnRampNode_0" function="internal">
        <lane id=":224859358#1-AddedOnRampNode_0_0" index="0" disallow="tram rail_urban rail rail_electric rail_fast ship" speed="27.78" length="8.18" width="4.00" shape="205.52,451.14 208.09,451.35 209.79,452.47 211.48,453.58 214.06,453.80"/>
        <lane id=":224859358#1-AddedOnRampNode_0_1" index="1" disallow="tram rail_urban rail rail_electric rail_fast ship" speed="27.78" length="8.18" width="4.00" shape="206.16,455.09 214.06,453.80"/>
        <lane id=":224859358#1-AddedOnRampNode_0_2" index="2" disallow="tram rail_urban rail rail_electric rail_fast ship" speed="27.78" length="8.18" width="4.00" shape="206.81,459.04 214.70,457.74"/>
        <lane id=":224859358#1-AddedOnRampNode_0_3" index="3" disallow="tram rail_urban rail rail_electric rail_fast ship" speed="27.78" length="8.18" width="4.00" shape="207.45,462.99 215.35,461.69"/>
        <lane id=":224859358#1-AddedOnRampNode_0_4" index="4" disallow="tram rail_urban rail rail_electric rail_fast ship" speed="27.78" length="8.18" width="4.00" shape="208.10,466.93 215.99,465.64"/>
        <lane id=":224859358#1-AddedOnRampNode_0_5" index="5" disallow="tram rail_urban rail rail_electric rail_fast ship" speed="27.78" length="8.18" width="4.00" shape="208.74,470.88 216.64,469.59"/>
        <lane id=":224859358#1-AddedOnRampNode_0_6" index="6" disallow="tram rail_urban rail rail_electric rail_fast ship" speed="27.78" length="8.18" width="4.00" shape="209.39,474.83 217.28,473.53"/>
    </edge>
    <edge id=":224859359#1-AddedOnRampNode_0" function="internal">
        <lane id=":224859359#1-AddedOnRampNode_0_0" index="0" disallow="tram rail_urban rail rail_electric rail_fast ship" speed="27.78" length="8.31" width="4.00" shape="419.17,606.03 418.81,608.59 417.59,610.21 416.37,611.84 416.01,614.39"/>
        <lane id=":224859359#1-AddedOnRampNode_0_1" index="1" disallow="tram rail_urban rail rail_electric rail_fast ship" speed="27.78" length="8.31" width="4.00" shape="415.19,606.44 416.01,614.39"/>
        <lane id=":224859359#1-AddedOnRampNode_0_2" index="2" disallow="tram rail_urban rail rail_electric rail_fast ship" speed="27.78" length="8.31" width="4.00" shape="411.21,606.84 412.03,614.80"/>
        <lane id=":224859359#1-AddedOnRampNode_0_3" index="3" disallow="tram rail_urban rail rail_electric rail_fast ship" speed="27.78" length="8.31" width="4.00" shape="407.23,607.25 408.05,615.21"/>
    </edge>
    <edge id=":271900700_0" function="internal">
        <lane id=":271900700_0_0" index="0" disallow="tram rail_urban rail rail_electric rail_fast ship" speed="27.78" length="0.29" width="4.00" shape="516.98,340.15 516.74,340.42"/>
        <lane id=":271900700_0_1" index="1" disallow="tram rail_urban rail rail_electric rail_fast ship" speed="27.78" length="0.29" width="4.00" shape="514.00,337.48 513.79,337.72"/>
        <lane id=":271900700_0_2" index="2" disallow="tram rail_urban rail rail_electric rail_fast ship" speed="27.78" length="0.29" width="4.00" shape="511.02,334.82 510.84,335.02"/>
        <lane id=":271900700_0_3" index="3" disallow="tram rail_urban rail rail_electric rail_fast ship" speed="27.78" length="0.29" width="4.00" shape="508.03,332.16 507.88,332.32"/>
    </edge>
    <edge id=":271900701_0" function="internal">
        <lane id=":271900701_0_0" index="0" disallow="tram rail_urban rail rail_electric rail_fast ship" speed="27.78" length="0.30" width="4.00" shape="496.11,321.97 496.29,321.77"/>
        <lane id=":271900701_0_1" index="1" disallow="tram rail_urban rail rail_electric rail_fast ship" speed="27.78" length="0.30" width="4.00" shape="499.06,324.68 499.25,324.46"/>
        <lane id=":271900701_0_2" index="2" disallow="tram rail_urban rail rail_electric rail_fast ship" speed="27.78" length="0.30" width="4.00" shape="502.00,327.38 502.21,327.16"/>
        <lane id=":271900701_0_3" index="3" disallow="tram rail_urban rail rail_electric rail_fast ship" speed="27.78" length="0.30" width="4.00" shape="504.95,330.09 505.17,329.85"/>
    </edge>
    <edge id=":35977533-AddedOffRampNode_0" function="internal">
        <lane id=":35977533-AddedOffRampNode_0_0" index="0" disallow="tram rail_urban rail rail_electric rail_fast ship" speed="27.78" length="8.31" width="4.00" shape="396.79,610.49 395.86,608.07 394.32,606.76 392.77,605.45 391.85,603.04"/>
        <lane id=":35977533-AddedOffRampNode_0_1" index="1" disallow="tram rail_urban rail rail_electric rail_fast ship" speed="27.78" length="8.31" width="4.00" shape="396.79,610.49 395.82,602.55"/>
        <lane id=":35977533-AddedOffRampNode_0_2" index="2" disallow="tram rail_urban rail rail_electric rail_fast ship" speed="27.78" length="8.31" width="4.00" shape="400.76,610.00 399.79,602.06"/>
        <lane id=":35977533-AddedOffRampNode_0_3" index="3" disallow="tram rail_urban rail rail_electric rail_fast ship" speed="27.78" length="8.31" width="4.00" shape="404.73,609.51 403.76,601.57"/>
    </edge>
    <edge id=":418316064_0" function="internal">
        <lane id=":418316064_0_0" index="0" disallow="tram rail_urban rail rail_electric rail_fast ship" speed="4.08" length="5.84" width="4.00" shape="134.52,71.68 135.44,70.13 136.41,69.57 137.44,70.02 138.52,71.46"/>
    </edge>
    <edge id=":420520082_0" function="internal">
        <lane id=":420520082_0_0" index="0" disallow="tram rail_urban rail rail_electric rail_fast ship" speed="18.05" length="1.16" width="4.00" shape="436.32,779.00 436.35,779.11 436.37,779.18 436.40,779.26 436.44,779.36"/>
        <lane id=":420520082_0_1" index="1" disallow="tram rail_urban rail rail_electric rail_fast ship" speed="18.05" length="1.16" width="4.00" shape="432.42,779.88 432.50,780.22 432.56,780.45 432.65,780.67 432.79,780.98"/>
        <lane id=":420520082_0_2" index="2" disallow="tram rail_urban rail rail_electric rail_fast ship" speed="18.05" length="1.16" width="4.00" shape="428.52,780.77 428.65,781.33 428.76,781.71 428.90,782.07 429.13,782.60"/>
    </edge>
    <edge id=":420520083_0" function="internal">
        <lane id=":420520083_0_0" index="0" disallow="tram rail_urban rail rail_electric rail_fast ship" speed="18.05" length="0.28" width="4.00" shape="414.66,747.53 414.64,747.34"/>
        <lane id=":420520083_0_1" index="1" disallow="tram rail_urban rail rail_electric rail_fast ship" speed="18.05" length="0.28" width="4.00" shape="418.64,747.06 418.60,746.78"/>
        <lane id=":420520083_0_2" index="2" disallow="tram rail_urban rail rail_electric rail_fast ship" speed="18.05" length="0.28" width="4.00" shape="422.61,746.59 422.56,746.23"/>
    </edge>
    <edge id=":5166925222_0" function="internal">
        <lane id=":5166925222_0_0" index="0" disallow="tram rail_urban rail rail_electric rail_fast ship" speed="4.08" length="5.84" width="4.00" shape="902.82,512.19 904.26,513.28 904.70,514.31 904.14,515.28 902.58,516.19"/>
    </edge>
    <edge id=":5170734159_0" function="internal">
        <lane id=":5170734159_0_0" index="0" disallow="tram rail_urban rail rail_electric rail_fast ship" speed="25.00" length="7.83" width="4.00" shape="332.93,476.34 325.13,477.12"/>
    </edge>
    <edge id=":5170734159_1" function="internal">
        <lane id=":5170734159_1_0" index="0" disallow="tram rail_urban rail rail_electric rail_fast ship" speed="27.78" length="7.99" width="4.00" shape="332.41,472.14 324.58,473.16"/>
        <lane id=":5170734159_1_1" index="1" disallow="tram rail_urban rail rail_electric rail_fast ship" speed="27.78" length="7.99" width="4.00" shape="331.93,468.17 324.04,469.20"/>
        <lane id=":5170734159_1_2" index="2" disallow="tram rail_urban rail rail_electric rail_fast ship" speed="27.78" length="7.99" width="4.00" shape="331.45,464.20 323.49,465.24"/>
        <lane id=":5170734159_1_3" index="3" disallow="tram rail_urban rail rail_electric rail_fast ship" speed="27.78" length="7.99" width="4.00" shape="330.96,460.23 322.94,461.28"/>
    </edge>
    <edge id=":5170751727_0" function="internal">
        <lane id=":5170751727_0_0" index="0" disallow="tram rail_urban rail rail_electric rail_fast ship" speed="27.78" length="8.71" width="4.00" shape="106.67,471.63 115.81,469.86"/>
        <lane id=":5170751727_0_1" index="1" disallow="tram rail_urban rail rail_electric rail_fast ship" speed="27.78" length="8.71" width="4.00" shape="107.55,475.53 116.46,473.80"/>
        <lane id=":5170751727_0_2" index="2" disallow="tram rail_urban rail rail_electric rail_fast ship" speed="27.78" length="8.71" width="4.00" shape="108.43,479.44 117.10,477.75"/>
        <lane id=":5170751727_0_3" index="3" disallow="tram rail_urban rail rail_electric rail_fast ship" speed="27.78" length="8.71" width="4.00" shape="109.31,483.34 117.75,481.70"/>
        <lane id=":5170751727_0_4" index="4" disallow="tram rail_urban rail rail_electric rail_fast ship" speed="27.78" length="8.71" width="4.00" shape="110.19,487.24 118.39,485.65"/>
        <lane id=":5170751727_0_5" index="5" disallow="tram rail_urban rail rail_electric rail_fast ship" speed="27.78" length="8.71" width="4.00" shape="111.07,491.14 119.04,489.60"/>
    </edge>
    <edge id=":5170751727_6" function="internal">
        <lane id=":5170751727_6_0" index="0" disallow="tram rail_urban rail rail_electric rail_fast ship" speed="15.13" length="7.91" width="4.00" shape="107.89,468.68 109.83,467.38 111.28,466.68 112.86,466.29 115.17,465.91"/>
    </edge>
    <edge id=":5641291069_0" function="internal">
        <lane id=":5641291069_0_0" index="0" disallow="tram rail_urban rail rail_electric rail_fast ship" speed="4.08" length="5.84" width="4.00" shape="749.57,601.43 747.88,602.05 746.78,601.86 746.27,600.87 746.35,599.07"/>
    </edge>
    <edge id=":5647032183_0" function="internal">
        <lane id=":5647032183_0_0" index="0" disallow="tram rail_urban rail rail_electric rail_fast ship" speed="6.55" length="9.75" width="4.00" shape="143.29,101.56 141.15,99.88 139.05,99.37 137.00,100.04 135.00,101.87"/>
    </edge>
    <edge id=":5647032183_1" function="internal">
        <lane id=":5647032183_1_0" index="0" disallow="tram rail_urban rail rail_electric rail_fast ship" speed="13.89" length="15.18" width="4.00" shape="143.29,101.56 140.79,98.70 138.58,95.57 136.82,92.21 135.69,88.63"/>
    </edge>
    <edge id=":5647032183_2" function="internal">
        <lane id=":5647032183_2_0" index="0" disallow="tram rail_urban rail rail_electric rail_fast ship" speed="13.89" length="13.00" width="4.00" shape="139.61,87.82 140.58,91.09 141.98,93.79 143.84,96.25 146.18,98.80"/>
    </edge>
    <edge id=":5647032183_3" function="internal">
        <lane id=":5647032183_3_0" index="0" disallow="tram rail_urban rail rail_electric rail_fast ship" speed="11.80" length="5.22" width="4.00" shape="139.61,87.82 139.84,91.22 139.49,93.00"/>
    </edge>
    <edge id=":5647032183_6" function="internal">
        <lane id=":5647032183_6_0" index="0" disallow="tram rail_urban rail rail_electric rail_fast ship" speed="11.80" length="10.06" width="4.00" shape="139.49,93.00 139.15,94.69 137.54,98.24 135.00,101.87"/>
    </edge>
    <edge id=":5647032183_4" function="internal">
        <lane id=":5647032183_4_0" index="0" disallow="tram rail_urban rail rail_electric rail_fast ship" speed="10.39" length="11.72" width="4.00" shape="131.90,99.34 133.94,96.47 135.25,93.73 135.83,91.12 135.69,88.63"/>
    </edge>
    <edge id=":5647032183_5" function="internal">
        <lane id=":5647032183_5_0" index="0" disallow="tram rail_urban rail rail_electric rail_fast ship" speed="8.37" length="16.80" width="4.00" shape="131.90,99.34 135.36,96.18 138.89,95.03 142.50,95.91 146.18,98.80"/>
    </edge>
    <edge id=":5647313471_0" function="internal">
        <lane id=":5647313471_0_0" index="0" disallow="tram rail_urban rail rail_electric rail_fast ship" speed="4.08" length="5.84" width="4.00" shape="103.19,153.50 101.67,154.46 100.55,154.50 99.84,153.64 99.55,151.86"/>
    </edge>
    <edge id=":5736089086_0" function="internal">
        <lane id=":5736089086_0_0" index="0" disallow="tram rail_urban rail rail_electric rail_fast ship" speed="25.00" length="8.25" width="4.00" shape="380.12,512.50 379.64,510.10 379.27,508.47 378.80,506.86 378.04,504.53"/>
    </edge>
    <edge id=":5736089086_1" function="internal">
        <lane id=":5736089086_1_0" index="0" disallow="tram rail_urban rail rail_electric rail_fast ship" speed="27.78" length="8.35" width="4.00" shape="384.05,511.74 382.59,503.36"/>
        <lane id=":5736089086_1_1" index="1" disallow="tram rail_urban rail rail_electric rail_fast ship" speed="27.78" length="8.35" width="4.00" shape="387.97,510.98 386.54,502.75"/>
        <lane id=":5736089086_1_2" index="2" disallow="tram rail_urban rail rail_electric rail_fast ship" speed="27.78" length="8.35" width="4.00" shape="391.90,510.22 390.49,502.14"/>
    </edge>
    <edge id=":678126832#0-AddedOffRampNode_0" function="internal">
        <lane id=":678126832#0-AddedOffRampNode_0_0" index="0" disallow="tram rail_urban rail rail_electric rail_fast ship" speed="27.78" length="8.31" width="4.00" shape="615.71,449.67 613.29,450.58 611.97,452.12 610.65,453.65 608.23,454.57"/>
        <lane id=":678126832#0-AddedOffRampNode_0_1" index="1" disallow="tram rail_urban rail rail_electric rail_fast ship" speed="27.78" length="8.31" width="4.00" shape="615.71,449.67 607.76,450.59"/>
        <lane id=":678126832#0-AddedOffRampNode_0_2" index="2" disallow="tram rail_urban rail rail_electric rail_fast ship" speed="27.78" length="8.31" width="4.00" shape="615.24,445.69 607.30,446.62"/>
        <lane id=":678126832#0-AddedOffRampNode_0_3" index="3" disallow="tram rail_urban rail rail_electric rail_fast ship" speed="27.78" length="8.31" width="4.00" shape="614.78,441.72 606.83,442.65"/>
    </edge>
    <edge id=":cluster_1642556745_2304667126_2304667130_2304667132_0" function="internal">
        <lane id=":cluster_1642556745_2304667126_2304667130_2304667132_0_0" index="0" disallow="tram rail_urban rail rail_electric rail_fast ship" speed="16.67" length="38.59" width="4.00" shape="443.73,457.39 428.19,458.89 416.78,460.62 409.48,462.59 406.29,464.79"/>
    </edge>
    <edge id=":cluster_1642556745_2304667126_2304667130_2304667132_1" function="internal">
        <lane id=":cluster_1642556745_2304667126_2304667130_2304667132_1_0" index="0" disallow="tram rail_urban rail rail_electric rail_fast ship" speed="27.78" length="70.69" width="4.00" shape="443.73,457.39 373.84,463.05"/>
        <lane id=":cluster_1642556745_2304667126_2304667130_2304667132_1_1" index="1" disallow="tram rail_urban rail rail_electric rail_fast ship" speed="27.78" length="70.69" width="4.00" shape="443.67,453.39 373.16,459.10"/>
        <lane id=":cluster_1642556745_2304667126_2304667130_2304667132_1_2" index="2" disallow="tram rail_urban rail rail_electric rail_fast ship" speed="27.78" length="70.69" width="4.00" shape="443.67,453.39 372.49,455.16"/>
    </edge>
    <edge id=":cluster_1642556745_2304667126_2304667130_2304667132_4" function="internal">
        <lane id=":cluster_1642556745_2304667126_2304667130_2304667132_4_0" index="0" disallow="tram rail_urban rail rail_electric rail_fast ship" speed="12.63" length="27.19" width="4.00" shape="443.67,453.39 427.66,449.99 420.75,441.67"/>
    </edge>
    <edge id=":cluster_1642556745_2304667126_2304667130_2304667132_5" function="internal">
        <lane id=":cluster_1642556745_2304667126_2304667130_2304667132_5_0" index="0" disallow="tram rail_urban rail rail_electric rail_fast ship" speed="11.62" length="20.63" width="4.00" shape="443.62,449.38 430.20,446.51 425.83,441.17"/>
    </edge>
    <edge id=":cluster_1642556745_2304667126_2304667130_2304667132_26" function="internal">
        <lane id=":cluster_1642556745_2304667126_2304667130_2304667132_26_0" index="0" disallow="tram rail_urban rail rail_electric rail_fast ship" speed="12.63" length="34.51" width="4.00" shape="420.75,441.67 418.73,439.24 418.09,424.82 426.93,410.40"/>
    </edge>
    <edge id=":cluster_1642556745_2304667126_2304667130_2304667132_27" function="internal">
        <lane id=":cluster_1642556745_2304667126_2304667130_2304667132_27_0" index="0" disallow="tram rail_urban rail rail_electric rail_fast ship" speed="11.62" length="31.18" width="4.00" shape="425.83,441.17 422.79,437.46 422.33,425.32 429.79,413.19"/>
    </edge>
    <edge id=":cluster_1642556745_2304667126_2304667130_2304667132_6" function="internal">
        <lane id=":cluster_1642556745_2304667126_2304667130_2304667132_6_0" index="0" disallow="tram rail_urban rail rail_electric rail_fast ship" speed="5.87" length="10.82" width="4.00" shape="440.53,423.68 438.56,426.50 438.37,428.49 439.96,429.66 443.34,430.01"/>
    </edge>
    <edge id=":cluster_1642556745_2304667126_2304667130_2304667132_7" function="internal">
        <lane id=":cluster_1642556745_2304667126_2304667130_2304667132_7_0" index="0" disallow="tram rail_urban rail rail_electric rail_fast ship" speed="27.78" length="54.93" width="4.00" shape="440.53,423.68 430.50,434.51 420.89,444.78 412.54,454.77 406.29,464.79"/>
        <lane id=":cluster_1642556745_2304667126_2304667130_2304667132_7_1" index="1" disallow="tram rail_urban rail rail_electric rail_fast ship" speed="27.78" length="54.93" width="4.00" shape="437.67,420.89 427.52,431.88 417.65,442.51 409.05,452.86 402.69,463.04"/>
        <lane id=":cluster_1642556745_2304667126_2304667130_2304667132_7_2" index="2" disallow="tram rail_urban rail rail_electric rail_fast ship" speed="27.78" length="54.93" width="4.00" shape="434.80,418.09 424.54,429.25 414.42,440.24 405.57,450.95 399.09,461.30"/>
    </edge>
    <edge id=":cluster_1642556745_2304667126_2304667130_2304667132_10" function="internal">
        <lane id=":cluster_1642556745_2304667126_2304667130_2304667132_10_0" index="0" disallow="tram rail_urban rail rail_electric rail_fast ship" speed="27.78" length="72.65" width="4.00" shape="431.94,415.29 419.84,427.49 404.68,439.92 388.28,450.00 372.49,455.16"/>
    </edge>
    <edge id=":cluster_1642556745_2304667126_2304667130_2304667132_11" function="internal">
        <lane id=":cluster_1642556745_2304667126_2304667130_2304667132_11_0" index="0" disallow="tram rail_urban rail rail_electric rail_fast ship" speed="27.78" length="60.01" width="4.00" shape="368.22,430.27 386.72,426.40 400.16,421.07 410.87,413.97 421.20,404.80"/>
    </edge>
    <edge id=":cluster_1642556745_2304667126_2304667130_2304667132_12" function="internal">