<?xml version="1.0" encoding="UTF-8"?>

<!-- generated on Sun 22 Sep 2019 03:33:59 PM by Eclipse SUMO netedit Version v1_2_0+1287-e3a0083b72
<configuration xmlns:xsi="http://www.w3.org/2001/XMLSchema-instance" xsi:noNamespaceSchemaLocation="http://sumo.dlr.de/xsd/netconvertConfiguration.xsd">

    <input>
        <sumo-net-file value="/home/leeyiyuan/carla/Data/shi_men_er_lu.net.xml"/>
    </input>

    <output>
        <output-file value="/home/leeyiyuan/carla/Data/shi_men_er_lu.net.xml"/>
    </output>

    <processing>
        <geometry.max-grade.fix value="false"/>
        <offset.disable-normalization value="true"/>
        <lefthand value="false"/>
    </processing>

    <junctions>
        <no-turnarounds value="true"/>
        <junctions.corner-detail value="5"/>
        <junctions.limit-turn-speed value="5.5"/>
        <rectangular-lane-cut value="false"/>
    </junctions>

    <pedestrian>
        <walkingareas value="false"/>
    </pedestrian>

</configuration>
-->

<net version="1.3" junctionCornerDetail="5" limitTurnSpeed="5.50" xmlns:xsi="http://www.w3.org/2001/XMLSchema-instance" xsi:noNamespaceSchemaLocation="http://sumo.dlr.de/xsd/net_file.xsd">

    <location netOffset="-13518494.51,-3662632.80" convBoundary="0.00,0.00,2921.15,1690.10" origBoundary="121.438702,31.229828,121.464944,31.242810" projParameter="+proj=merc +a=6378137 +b=6378137 +lat_ts=0.0 +lon_0=0.0 +x_0=0.0 +y_0=0 +k=1.0 +units=m +nadgrids=@null +wktext +no_defs"/>

    <type id="highway.bridleway" priority="1" numLanes="1" speed="2.78" allow="pedestrian" oneway="1" width="2.00"/>
    <type id="highway.bus_guideway" priority="1" numLanes="1" speed="27.78" allow="bus" oneway="1"/>
    <type id="highway.cycleway" priority="1" numLanes="1" speed="8.33" allow="bicycle" oneway="0" width="1.00"/>
    <type id="highway.footway" priority="1" numLanes="1" speed="2.78" allow="pedestrian" oneway="1" width="2.00"/>
    <type id="highway.ford" priority="1" numLanes="1" speed="2.78" allow="army" oneway="0"/>
    <type id="highway.living_street" priority="2" numLanes="1" speed="2.78" disallow="tram rail_urban rail rail_electric rail_fast ship" oneway="0"/>
    <type id="highway.motorway" priority="14" numLanes="2" speed="39.44" allow="private emergency authority army vip passenger hov taxi bus coach delivery truck trailer motorcycle evehicle custom1 custom2" oneway="1"/>
    <type id="highway.motorway_link" priority="9" numLanes="1" speed="22.22" allow="private emergency authority army vip passenger hov taxi bus coach delivery truck trailer motorcycle evehicle custom1 custom2" oneway="1"/>
    <type id="highway.path" priority="1" numLanes="1" speed="2.78" allow="pedestrian bicycle" oneway="1" width="2.00"/>
    <type id="highway.pedestrian" priority="1" numLanes="1" speed="2.78" allow="pedestrian" oneway="1" width="2.00"/>
    <type id="highway.primary" priority="12" numLanes="2" speed="27.78" disallow="tram rail_urban rail rail_electric rail_fast ship" oneway="0"/>
    <type id="highway.primary_link" priority="7" numLanes="1" speed="22.22" disallow="tram rail_urban rail rail_electric rail_fast ship" oneway="0"/>
    <type id="highway.raceway" priority="15" numLanes="2" speed="83.33" allow="vip" oneway="0"/>
    <type id="highway.residential" priority="3" numLanes="1" speed="13.89" disallow="tram rail_urban rail rail_electric rail_fast ship" oneway="0"/>
    <type id="highway.secondary" priority="11" numLanes="2" speed="27.78" disallow="tram rail_urban rail rail_electric rail_fast ship" oneway="0"/>
    <type id="highway.secondary_link" priority="6" numLanes="1" speed="22.22" disallow="tram rail_urban rail rail_electric rail_fast ship" oneway="0"/>
    <type id="highway.service" priority="1" numLanes="1" speed="5.56" allow="pedestrian delivery bicycle" oneway="0"/>
    <type id="highway.stairs" priority="1" numLanes="1" speed="1.39" allow="pedestrian" oneway="1" width="2.00"/>
    <type id="highway.step" priority="1" numLanes="1" speed="1.39" allow="pedestrian" oneway="1" width="2.00"/>
    <type id="highway.steps" priority="1" numLanes="1" speed="1.39" allow="pedestrian" oneway="1" width="2.00"/>
    <type id="highway.tertiary" priority="10" numLanes="1" speed="22.22" disallow="tram rail_urban rail rail_electric rail_fast ship" oneway="0"/>
    <type id="highway.tertiary_link" priority="5" numLanes="1" speed="22.22" disallow="tram rail_urban rail rail_electric rail_fast ship" oneway="0"/>
    <type id="highway.track" priority="1" numLanes="1" speed="5.56" disallow="tram rail_urban rail rail_electric rail_fast ship" oneway="0"/>
    <type id="highway.trunk" priority="13" numLanes="2" speed="27.78" disallow="pedestrian bicycle tram rail_urban rail rail_electric rail_fast ship" oneway="0"/>
    <type id="highway.trunk_link" priority="8" numLanes="1" speed="22.22" disallow="pedestrian bicycle tram rail_urban rail rail_electric rail_fast ship" oneway="0"/>
    <type id="highway.unclassified" priority="4" numLanes="1" speed="13.89" disallow="tram rail_urban rail rail_electric rail_fast ship" oneway="0"/>
    <type id="highway.unsurfaced" priority="1" numLanes="1" speed="8.33" disallow="tram rail_urban rail rail_electric rail_fast ship" oneway="0"/>
    <type id="railway.highspeed" priority="21" numLanes="1" speed="69.44" allow="rail_fast" oneway="1"/>
    <type id="railway.light_rail" priority="19" numLanes="1" speed="27.78" allow="rail_urban" oneway="1"/>
    <type id="railway.preserved" priority="16" numLanes="1" speed="27.78" allow="rail" oneway="1"/>
    <type id="railway.rail" priority="20" numLanes="1" speed="44.44" allow="rail" oneway="1"/>
    <type id="railway.subway" priority="18" numLanes="1" speed="27.78" allow="rail_urban" oneway="1"/>
    <type id="railway.tram" priority="17" numLanes="1" speed="13.89" allow="tram" oneway="1"/>

    <edge id=":482773674_0" function="internal">
        <lane id=":482773674_0_0" index="0" disallow="tram rail_urban rail rail_electric rail_fast ship" speed="4.08" length="5.84" width="4.00" shape="2004.46,651.03 2005.75,649.77 2006.83,649.48 2007.71,650.18 2008.38,651.85"/>
    </edge>
    <edge id=":638736492_0" function="internal">
        <lane id=":638736492_0_0" index="0" disallow="tram rail_urban rail rail_electric rail_fast ship" speed="27.78" length="0.16" width="4.00" shape="1929.06,881.86 1929.03,881.95"/>
        <lane id=":638736492_0_1" index="1" disallow="tram rail_urban rail rail_electric rail_fast ship" speed="27.78" length="0.16" width="4.00" shape="1925.33,880.42 1925.27,880.57"/>
        <lane id=":638736492_0_2" index="2" disallow="tram rail_urban rail rail_electric rail_fast ship" speed="27.78" length="0.16" width="4.00" shape="1921.60,878.97 1921.52,879.18"/>
    </edge>
    <edge id=":638736492_3" function="internal">
        <lane id=":638736492_3_0" index="0" disallow="tram rail_urban rail rail_electric rail_fast ship" speed="27.78" length="0.38" width="4.00" shape="1906.51,873.64 1906.68,873.19"/>
        <lane id=":638736492_3_1" index="1" disallow="tram rail_urban rail rail_electric rail_fast ship" speed="27.78" length="0.38" width="4.00" shape="1910.26,875.03 1910.41,874.64"/>
        <lane id=":638736492_3_2" index="2" disallow="tram rail_urban rail rail_electric rail_fast ship" speed="27.78" length="0.38" width="4.00" shape="1914.02,876.41 1914.14,876.08"/>
        <lane id=":638736492_3_3" index="3" disallow="tram rail_urban rail rail_electric rail_fast ship" speed="27.78" length="0.38" width="4.00" shape="1917.77,877.80 1917.87,877.53"/>
    </edge>
    <edge id=":640008056_0" function="internal">
        <lane id=":640008056_0_0" index="0" disallow="tram rail_urban rail rail_electric rail_fast ship" speed="13.89" length="0.30" width="4.00" shape="1788.95,1145.20 1789.07,1144.91"/>
        <lane id=":640008056_0_1" index="1" disallow="tram rail_urban rail rail_electric rail_fast ship" speed="13.89" length="0.30" width="4.00" shape="1792.60,1146.83 1792.72,1146.55"/>
        <lane id=":640008056_0_2" index="2" disallow="tram rail_urban rail rail_electric rail_fast ship" speed="13.89" length="0.30" width="4.00" shape="1796.25,1148.46 1796.37,1148.19"/>
    </edge>
    <edge id=":640008063_0" function="internal">
        <lane id=":640008063_0_0" index="0" disallow="tram rail_urban rail rail_electric rail_fast ship" speed="20.84" length="5.56" width="4.00" shape="1849.69,1008.26 1850.40,1006.45 1850.88,1005.20 1851.42,1003.99 1852.31,1002.26"/>
        <lane id=":640008063_0_1" index="1" disallow="tram rail_urban rail rail_electric rail_fast ship" speed="20.84" length="5.56" width="4.00" shape="1853.42,1009.70 1854.02,1008.16 1854.41,1007.10 1854.85,1006.06 1855.60,1004.59"/>
        <lane id=":640008063_0_2" index="2" disallow="tram rail_urban rail rail_electric rail_fast ship" speed="20.84" length="5.56" width="4.00" shape="1857.15,1011.13 1857.63,1009.87 1857.93,1008.99 1858.28,1008.13 1858.88,1006.93"/>
    </edge>
    <edge id=":640008063_3" function="internal">
        <lane id=":640008063_3_0" index="0" disallow="tram rail_urban rail rail_electric rail_fast ship" speed="27.78" length="2.57" width="4.00" shape="1860.88,1012.57 1861.23,1011.57 1861.45,1010.88 1861.70,1010.20 1862.17,1009.26"/>
        <lane id=":640008063_3_1" index="1" disallow="tram rail_urban rail rail_electric rail_fast ship" speed="27.78" length="2.57" width="4.00" shape="1864.61,1014.00 1864.85,1013.28 1864.98,1012.77 1865.13,1012.27 1865.46,1011.59"/>
        <lane id=":640008063_3_2" index="2" disallow="tram rail_urban rail rail_electric rail_fast ship" speed="27.78" length="2.57" width="4.00" shape="1868.35,1015.44 1868.47,1014.99 1868.51,1014.66 1868.56,1014.34 1868.74,1013.92"/>
    </edge>
    <edge id=":cluster_109429793_109652252_109652287_63283237_0" function="internal">
        <lane id=":cluster_109429793_109652252_109652287_63283237_0_0" index="0" disallow="tram rail_urban rail rail_electric rail_fast ship" speed="5.80" length="9.88" width="4.00" shape="1880.73,1023.92 1878.70,1021.46 1876.88,1020.65 1875.26,1021.48 1873.84,1023.97"/>
    </edge>
    <edge id=":cluster_109429793_109652252_109652287_63283237_1" function="internal">
        <lane id=":cluster_109429793_109652252_109652287_63283237_1_0" index="0" disallow="tram rail_urban rail rail_electric rail_fast ship" speed="27.78" length="59.41" width="4.00" shape="1880.73,1023.92 1850.57,972.27"/>
        <lane id=":cluster_109429793_109652252_109652287_63283237_1_1" index="1" disallow="tram rail_urban rail rail_electric rail_fast ship" speed="27.78" length="59.41" width="4.00" shape="1884.03,1021.67 1854.29,970.70"/>
    </edge>
    <edge id=":cluster_109429793_109652252_109652287_63283237_3" function="internal">
        <lane id=":cluster_109429793_109652252_109652287_63283237_3_0" index="0" disallow="tram rail_urban rail rail_electric rail_fast ship" speed="19.89" length="19.91" width="4.00" shape="1884.03,1021.67 1878.25,1009.88 1876.93,1003.23"/>
    </edge>
    <edge id=":cluster_109429793_109652252_109652287_63283237_18" function="internal">
        <lane id=":cluster_109429793_109652252_109652287_63283237_18_0" index="0" disallow="tram rail_urban rail rail_electric rail_fast ship" speed="19.89" length="32.20" width="4.00" shape="1876.93,1003.23 1875.83,997.65 1876.77,984.98 1881.09,971.87"/>
    </edge>
    <edge id=":cluster_109429793_109652252_109652287_63283237_4" function="internal">
        <lane id=":cluster_109429793_109652252_109652287_63283237_4_0" index="0" disallow="tram rail_urban rail rail_electric rail_fast ship" speed="17.50" length="41.50" width="4.00" shape="1892.03,976.80 1887.90,988.39 1886.45,998.88 1887.68,1008.26 1891.59,1016.53"/>
    </edge>
    <edge id=":cluster_109429793_109652252_109652287_63283237_5" function="internal">
        <lane id=":cluster_109429793_109652252_109652287_63283237_5_0" index="0" disallow="tram rail_urban rail rail_electric rail_fast ship" speed="27.78" length="49.91" width="4.00" shape="1892.03,976.80 1873.84,1023.97"/>
        <lane id=":cluster_109429793_109652252_109652287_63283237_5_1" index="1" disallow="tram rail_urban rail rail_electric rail_fast ship" speed="27.78" length="49.91" width="4.00" shape="1888.38,975.16 1870.67,1021.12"/>
    </edge>
    <edge id=":cluster_109429793_109652252_109652287_63283237_7" function="internal">
        <lane id=":cluster_109429793_109652252_109652287_63283237_7_0" index="0" disallow="tram rail_urban rail rail_electric rail_fast ship" speed="10.91" length="39.44" width="4.00" shape="1884.73,973.51 1878.27,981.65 1870.20,983.36 1861.78,979.45 1854.29,970.70"/>
    </edge>
    <edge id=":cluster_109429793_109652252_109652287_63283237_8" function="internal">
        <lane id=":cluster_109429793_109652252_109652287_63283237_8_0" index="0" disallow="tram rail_urban rail rail_electric rail_fast ship" speed="5.96" length="10.57" width="4.00" shape="1862.85,967.08 1864.82,969.74 1866.69,970.60 1868.47,969.67 1870.14,966.95"/>
    </edge>
    <edge id=":cluster_109429793_109652252_109652287_63283237_9" function="internal">
        <lane id=":cluster_109429793_109652252_109652287_63283237_9_0" index="0" disallow="tram rail_urban rail rail_electric rail_fast ship" speed="27.78" length="57.59" width="4.00" shape="1862.85,967.08 1891.59,1016.53"/>
        <lane id=":cluster_109429793_109652252_109652287_63283237_9_1" index="1" disallow="tram rail_urban rail rail_electric rail_fast ship" speed="27.78" length="57.59" width="4.00" shape="1859.14,968.65 1888.29,1018.78"/>
    </edge>
    <edge id=":cluster_109429793_109652252_109652287_63283237_11" function="internal">
        <lane id=":cluster_109429793_109652252_109652287_63283237_11_0" index="0" disallow="tram rail_urban rail rail_electric rail_fast ship" speed="22.01" length="27.22" width="4.00" shape="1859.14,968.65 1867.01,984.51 1869.94,993.56"/>
    </edge>
    <edge id=":cluster_109429793_109652252_109652287_63283237_19" function="internal">
        <lane id=":cluster_109429793_109652252_109652287_63283237_19_0" index="0" disallow="tram rail_urban rail rail_electric rail_fast ship" speed="22.01" length="28.09" width="4.00" shape="1869.94,993.56 1871.56,998.54 1872.78,1010.74 1870.67,1021.12"/>
    </edge>
    <edge id=":cluster_109429793_109652252_109652287_63283237_12" function="internal">
        <lane id=":cluster_109429793_109652252_109652287_63283237_12_0" index="0" disallow="tram rail_urban rail rail_electric rail_fast ship" speed="15.05" length="31.33" width="4.00" shape="1852.41,1002.09 1855.16,994.93 1855.78,987.57 1854.25,980.02 1850.57,972.27"/>
    </edge>
    <edge id=":cluster_109429793_109652252_109652287_63283237_13" function="internal">
        <lane id=":cluster_109429793_109652252_109652287_63283237_13_0" index="0" disallow="tram rail_urban rail rail_electric rail_fast ship" speed="27.78" length="41.39" width="4.00" shape="1855.69,1004.42 1860.83,993.68 1863.43,985.90 1865.77,978.01 1870.14,966.95"/>
        <lane id=":cluster_109429793_109652252_109652287_63283237_13_1" index="1" disallow="tram rail_urban rail rail_electric rail_fast ship" speed="27.78" length="41.39" width="4.00" shape="1858.98,1006.75 1864.26,995.76 1866.97,987.76 1869.39,979.72 1873.79,968.59"/>
        <lane id=":cluster_109429793_109652252_109652287_63283237_13_2" index="2" disallow="tram rail_urban rail rail_electric rail_fast ship" speed="27.78" length="41.39" width="4.00" shape="1862.27,1009.08 1867.68,997.84 1870.50,989.62 1873.00,981.42 1877.44,970.23"/>
        <lane id=":cluster_109429793_109652252_109652287_63283237_13_3" index="3" disallow="tram rail_urban rail rail_electric rail_fast ship" speed="27.78" length="41.39" width="4.00" shape="1865.55,1011.41 1871.10,999.92 1874.04,991.48 1876.62,983.12 1881.09,971.87"/>
    </edge>
    <edge id=":cluster_109429793_109652252_109652287_63283237_17" function="internal">
        <lane id=":cluster_109429793_109652252_109652287_63283237_17_0" index="0" disallow="tram rail_urban rail rail_electric rail_fast ship" speed="9.16" length="25.46" width="4.00" shape="1868.84,1013.74 1873.24,1009.09 1878.20,1009.12 1883.35,1012.72 1888.29,1018.78"/>
    </edge>
    <edge id=":gneJ10_0" function="internal">
        <lane id=":gneJ10_0_0" index="0" disallow="tram rail_urban rail rail_electric rail_fast ship" speed="27.78" length="0.82" width="4.00" shape="1991.16,1158.23 1991.23,1158.33 1991.29,1158.39 1991.35,1158.45 1991.44,1158.53"/>
        <lane id=":gneJ10_0_1" index="1" disallow="tram rail_urban rail rail_electric rail_fast ship" speed="27.78" length="0.82" width="4.00" shape="1987.96,1160.63 1988.18,1160.92 1988.35,1161.12 1988.53,1161.29 1988.80,1161.54"/>
    </edge>
    <edge id=":gneJ5_0" function="internal">
        <lane id=":gneJ5_0_0" index="0" disallow="tram rail_urban rail rail_electric rail_fast ship" speed="27.78" length="0.27" width="4.00" shape="1957.70,1113.68 1957.79,1113.82"/>
        <lane id=":gneJ5_0_1" index="1" disallow="tram rail_urban rail rail_electric rail_fast ship" speed="27.78" length="0.27" width="4.00" shape="1954.39,1115.93 1954.60,1116.22"/>
    </edge>
    <edge id=":gneJ6_0" function="internal">
        <lane id=":gneJ6_0_0" index="0" disallow="tram rail_urban rail rail_electric rail_fast ship" speed="27.78" length="0.22" width="4.00" shape="1947.88,1123.21 1947.69,1122.95"/>
        <lane id=":gneJ6_0_1" index="1" disallow="tram rail_urban rail rail_electric rail_fast ship" speed="27.78" length="0.22" width="4.00" shape="1951.06,1120.78 1950.99,1120.69"/>
    </edge>
    <edge id=":gneJ7_0" function="internal">
        <lane id=":gneJ7_0_0" index="0" disallow="tram rail_urban rail rail_electric rail_fast ship" speed="20.44" length="1.14" width="4.00" shape="1817.78,893.39 1818.19,893.70 1818.45,893.92 1818.69,894.18 1819.00,894.58"/>
        <lane id=":gneJ7_0_1" index="1" disallow="tram rail_urban rail rail_electric rail_fast ship" speed="27.78" length="1.14" width="4.00" shape="1815.43,896.63 1815.57,896.73 1815.66,896.81 1815.74,896.90 1815.84,897.03"/>
    </edge>
    <edge id=":gneJ8_0" function="internal">
        <lane id=":gneJ8_0_0" index="0" disallow="tram rail_urban rail rail_electric rail_fast ship" speed="27.78" length="1.17" width="4.00" shape="1808.04,902.87 1807.93,902.73 1807.85,902.64 1807.76,902.57 1807.62,902.46"/>
        <lane id=":gneJ8_0_1" index="1" disallow="tram rail_urban rail rail_electric rail_fast ship" speed="18.29" length="1.17" width="4.00" shape="1811.22,900.44 1810.90,900.03 1810.66,899.77 1810.39,899.54 1809.97,899.23"/>
    </edge>
    <edge id=":gneJ9_0" function="internal">
        <lane id=":gneJ9_0_0" index="0" disallow="tram rail_urban rail rail_electric rail_fast ship" speed="27.78" length="0.71" width="4.00" shape="1982.41,1168.15 1982.18,1167.93 1982.03,1167.78 1981.89,1167.61 1981.70,1167.36"/>
        <lane id=":gneJ9_0_1" index="1" disallow="tram rail_urban rail rail_electric rail_fast ship" speed="27.78" length="0.71" width="4.00" shape="1985.11,1165.19 1985.03,1165.12 1984.98,1165.07 1984.94,1165.01 1984.87,1164.93"/>
    </edge>

    <edge id="-47267012#0" from="638736492" to="cluster_109429793_109652252_109652287_63283237" priority="11" type="highway.secondary" shape="1919.69,878.37 1893.80,948.50 1874.44,991.51">
        <lane id="-47267012#0_0" index="0" disallow="tram rail_urban rail rail_electric rail_fast ship" speed="27.78" length="101.58" width="4.00" shape="1929.03,881.95 1903.06,952.29 1892.03,976.80"/>
        <lane id="-47267012#0_1" index="1" disallow="tram rail_urban rail rail_electric rail_fast ship" speed="27.78" length="101.58" width="4.00" shape="1925.27,880.57 1899.36,950.77 1888.38,975.16"/>
        <lane id="-47267012#0_2" index="2" disallow="tram rail_urban rail rail_electric rail_fast ship" speed="27.78" length="101.58" width="4.00" shape="1921.52,879.18 1895.65,949.26 1884.73,973.51"/>
    </edge>
    <edge id="-47267012#1" from="482773674" to="638736492" priority="11" type="highway.secondary" shape="2006.42,651.44 2004.99,658.24 1919.69,878.37">
        <lane id="-47267012#1_0" index="0" disallow="tram rail_urban rail rail_electric rail_fast ship" speed="27.78" length="243.88" width="4.00" shape="2016.21,653.50 2014.61,661.09 1929.06,881.86"/>
        <lane id="-47267012#1_1" index="1" disallow="tram rail_urban rail rail_electric rail_fast ship" speed="27.78" length="243.88" width="4.00" shape="2012.29,652.67 2010.76,659.95 1925.33,880.42"/>
        <lane id="-47267012#1_2" index="2" disallow="tram rail_urban rail rail_electric rail_fast ship" speed="27.78" length="243.88" width="4.00" shape="2008.38,651.85 2006.91,658.81 1921.60,878.97"/>
    </edge>
    <edge id="12103213#0" from="109654455" to="640008063" priority="11" type="highway.secondary" spreadType="center">
        <lane id="12103213#0_0" index="0" disallow="tram rail_urban rail rail_electric rail_fast ship" speed="27.78" length="38.51" width="4.00" shape="1847.05,1048.51 1860.88,1012.57"/>
        <lane id="12103213#0_1" index="1" disallow="tram rail_urban rail rail_electric rail_fast ship" speed="27.78" length="38.51" width="4.00" shape="1850.79,1049.94 1864.61,1014.00"/>
        <lane id="12103213#0_2" index="2" disallow="tram rail_urban rail rail_electric rail_fast ship" speed="27.78" length="38.51" width="4.00" shape="1854.52,1051.38 1868.35,1015.44"/>
    </edge>
    <edge id="12103213#1" from="640008063" to="cluster_109429793_109652252_109652287_63283237" priority="11" type="highway.secondary" spreadType="center" shape="1860.49,1008.16 1863.96,1001.76">
        <lane id="12103213#1_0" index="0" disallow="tram rail_urban rail rail_electric rail_fast ship" speed="27.78" length="0.20" width="4.00" acceleration="1" shape="1852.31,1002.26 1852.41,1002.09"/>
        <lane id="12103213#1_1" index="1" disallow="tram rail_urban rail rail_electric rail_fast ship" speed="27.78" length="0.20" width="4.00" acceleration="1" shape="1855.60,1004.59 1855.69,1004.42"/>
        <lane id="12103213#1_2" index="2" disallow="tram rail_urban rail rail_electric rail_fast ship" speed="27.78" length="0.20" width="4.00" acceleration="1" shape="1858.88,1006.93 1858.98,1006.75"/>
        <lane id="12103213#1_3" index="3" disallow="tram rail_urban rail rail_electric rail_fast ship" speed="27.78" length="0.20" width="4.00" shape="1862.17,1009.26 1862.27,1009.08"/>
        <lane id="12103213#1_4" index="4" disallow="tram rail_urban rail rail_electric rail_fast ship" speed="27.78" length="0.20" width="4.00" shape="1865.46,1011.59 1865.55,1011.41"/>
        <lane id="12103213#1_5" index="5" disallow="tram rail_urban rail rail_electric rail_fast ship" speed="27.78" length="0.20" width="4.00" shape="1868.74,1013.92 1868.84,1013.74"/>
    </edge>
    <edge id="12247572" from="gneJ11" to="gneJ7" priority="11" type="highway.secondary" spreadType="center">
        <lane id="12247572_0" index="0" disallow="tram rail_urban rail rail_electric rail_fast ship" speed="27.78" length="174.62" width="4.00" shape="1676.36,790.96 1817.78,893.39"/>
        <lane id="12247572_1" index="1" disallow="tram rail_urban rail rail_electric rail_fast ship" speed="27.78" length="174.62" width="4.00" shape="1674.02,794.20 1815.43,896.63"/>
    </edge>
    <edge id="12247572.108" from="gneJ7" to="cluster_109429793_109652252_109652287_63283237" priority="11" type="highway.secondary" spreadType="center" shape="1817.07,895.35 1840.83,926.01 1860.39,966.81 1874.44,991.51">
        <lane id="12247572.108_0" index="0" disallow="tram rail_urban rail rail_electric rail_fast ship" speed="27.78" length="84.68" width="4.00" shape="1819.00,894.58 1842.54,924.95 1862.16,965.88 1862.85,967.08"/>
        <lane id="12247572.108_1" index="1" disallow="tram rail_urban rail rail_electric rail_fast ship" speed="27.78" length="84.68" width="4.00" shape="1815.84,897.03 1839.12,927.07 1858.62,967.74 1859.14,968.65"/>
    </edge>
    <edge id="39659484" from="109654455" to="gneJ1" priority="11" type="highway.secondary" spreadType="center">
        <lane id="39659484_0" index="0" disallow="tram rail_urban rail rail_electric rail_fast ship" speed="27.78" length="205.55" width="4.00" shape="1853.36,1054.23 1772.35,1243.14"/>
        <lane id="39659484_1" index="1" disallow="tram rail_urban rail rail_electric rail_fast ship" speed="27.78" length="205.55" width="4.00" shape="1849.68,1052.66 1768.67,1241.57"/>
        <lane id="39659484_2" index="2" disallow="tram rail_urban rail rail_electric rail_fast ship" speed="27.78" length="205.55" width="4.00" shape="1846.01,1051.08 1764.99,1239.99"/>
    </edge>
    <edge id="47267012#0" from="cluster_109429793_109652252_109652287_63283237" to="638736492" priority="11" type="highway.secondary" shape="1874.44,991.51 1893.80,948.50 1919.69,878.37">
        <lane id="47267012#0_0" index="0" disallow="tram rail_urban rail rail_electric rail_fast ship" speed="27.78" length="100.61" width="4.00" shape="1870.14,966.95 1880.83,943.20 1906.51,873.64"/>
        <lane id="47267012#0_1" index="1" disallow="tram rail_urban rail rail_electric rail_fast ship" speed="27.78" length="100.61" width="4.00" shape="1873.79,968.59 1884.54,944.71 1910.26,875.03"/>
        <lane id="47267012#0_2" index="2" disallow="tram rail_urban rail rail_electric rail_fast ship" speed="27.78" length="100.61" width="4.00" shape="1877.44,970.23 1888.24,946.23 1914.02,876.41"/>
        <lane id="47267012#0_3" index="3" disallow="tram rail_urban rail rail_electric rail_fast ship" speed="27.78" length="100.61" width="4.00" shape="1881.09,971.87 1891.95,947.74 1917.77,877.80"/>
    </edge>
    <edge id="47267012#1" from="638736492" to="482773674" priority="11" type="highway.secondary" shape="1919.69,878.37 2004.99,658.24 2006.42,651.44">
        <lane id="47267012#1_0" index="0" disallow="tram rail_urban rail rail_electric rail_fast ship" speed="27.78" length="241.60" width="4.00" shape="1906.68,873.19 1991.52,654.24 1992.72,648.56"/>
        <lane id="47267012#1_1" index="1" disallow="tram rail_urban rail rail_electric rail_fast ship" speed="27.78" length="241.60" width="4.00" shape="1910.41,874.64 1995.37,655.39 1996.63,649.38"/>
        <lane id="47267012#1_2" index="2" disallow="tram rail_urban rail rail_electric rail_fast ship" speed="27.78" length="241.60" width="4.00" shape="1914.14,876.08 1999.22,656.53 2000.55,650.21"/>
        <lane id="47267012#1_3" index="3" disallow="tram rail_urban rail rail_electric rail_fast ship" speed="27.78" length="241.60" width="4.00" shape="1917.87,877.53 2003.07,657.67 2004.46,651.03"/>
    </edge>
    <edge id="47267013#1" from="cluster_109429793_109652252_109652287_63283237" to="gneJ2" priority="11" type="highway.secondary" spreadType="center" shape="1875.02,1015.61 1869.32,1029.90 1859.87,1055.50 1780.21,1245.18">
        <lane id="47267013#1_0" index="0" disallow="tram rail_urban rail rail_electric rail_fast ship" speed="27.78" length="240.93" width="4.00" shape="1873.84,1023.97 1871.19,1030.62 1861.73,1056.23 1782.06,1245.96"/>
        <lane id="47267013#1_1" index="1" disallow="tram rail_urban rail rail_electric rail_fast ship" speed="27.78" length="240.93" width="4.00" shape="1870.67,1021.12 1867.45,1029.18 1858.01,1054.77 1778.37,1244.41"/>
    </edge>
    <edge id="50372107#0.77" from="gneJ0" to="640008056" priority="3" type="highway.residential" spreadType="center">
        <lane id="50372107#0.77_0" index="0" disallow="tram rail_urban rail rail_electric rail_fast ship" speed="13.89" length="97.42" width="4.00" shape="1749.27,1234.18 1788.95,1145.20"/>
        <lane id="50372107#0.77_1" index="1" disallow="tram rail_urban rail rail_electric rail_fast ship" speed="13.89" length="97.42" width="4.00" shape="1752.93,1235.80 1792.60,1146.83"/>
        <lane id="50372107#0.77_2" index="2" disallow="tram rail_urban rail rail_electric rail_fast ship" speed="13.89" length="97.42" width="4.00" shape="1756.58,1237.43 1796.25,1148.46"/>
    </edge>
    <edge id="50372107#1" from="640008056" to="640008063" priority="3" type="highway.residential" spreadType="center" shape="1792.66,1146.69 1845.81,1028.39 1855.21,1005.30">
        <lane id="50372107#1_0" index="0" disallow="tram rail_urban rail rail_electric rail_fast ship" speed="13.89" length="149.72" width="4.00" shape="1789.07,1144.91 1842.13,1026.82 1849.69,1008.26"/>
        <lane id="50372107#1_1" index="1" disallow="tram rail_urban rail rail_electric rail_fast ship" speed="13.89" length="149.72" width="4.00" shape="1792.72,1146.55 1845.81,1028.39 1853.42,1009.70"/>
        <lane id="50372107#1_2" index="2" disallow="tram rail_urban rail rail_electric rail_fast ship" speed="13.89" length="149.72" width="4.00" shape="1796.37,1148.19 1849.49,1029.96 1857.15,1011.13"/>
    </edge>
    <edge id="50372122#0.143" from="gneJ6" to="cluster_109429793_109652252_109652287_63283237" priority="11" type="highway.secondary" spreadType="center" shape="1949.40,1121.91 1893.87,1040.60 1877.11,1014.63">
        <lane id="50372122#0.143_0" index="0" disallow="tram rail_urban rail rail_electric rail_fast ship" speed="27.78" length="119.54" width="4.00" shape="1947.69,1122.95 1892.20,1041.71 1880.73,1023.92"/>
        <lane id="50372122#0.143_1" index="1" disallow="tram rail_urban rail rail_electric rail_fast ship" speed="27.78" length="119.54" width="4.00" shape="1950.99,1120.69 1895.54,1039.49 1884.03,1021.67"/>
    </edge>
    <edge id="50372122#0.29" from="gneJ3" to="gneJ9" priority="11" type="highway.secondary" spreadType="center">
        <lane id="50372122#0.29_0" index="0" disallow="tram rail_urban rail rail_electric rail_fast ship" speed="27.78" length="69.09" width="4.00" shape="2033.44,1214.73 1982.41,1168.15"/>
        <lane id="50372122#0.29_1" index="1" disallow="tram rail_urban rail rail_electric rail_fast ship" speed="27.78" length="69.09" width="4.00" shape="2036.14,1211.77 1985.11,1165.19"/>
    </edge>
    <edge id="50372122#0.97" from="gneJ9" to="gneJ6" priority="11" type="highway.secondary" spreadType="center">